@<TRIPOS>MOLECULE
RES
4352 4501 1 0 1
SMALL
NO_CHARGES
@<TRIPOS>CRYSIN
  154.6596   148.5856   138.3474    90.0000    90.0000    90.0000 1 1
@<TRIPOS>ATOM
       1 C0          10.1587     9.4980     8.7322 C0            1 RES     
       2 C1           9.1418     9.2070     9.8578 C1            1 RES     
       3 C1           9.7005     9.2883    11.0933 C1            1 RES     
       4 S2           8.6479     8.8882    12.3320 S2            1 RES     
       5 C1           7.3904     8.5422    11.2412 C1            1 RES     
       6 C1           7.8175     8.7428     9.9240 C1            1 RES     
       7 C1          11.0728     9.5882    10.9533 C1            1 RES     
       8 C1          11.3893     9.6295     9.6308 C1            1 RES     
       9 C1          12.7546     9.7786     9.4187 C1            1 RES     
      10 C1          13.4368     9.8832    10.6426 C1            1 RES     
      11 S2          12.3786     9.7762    11.9663 S2            1 RES     
      12 H3           7.1893     8.5042     9.0869 H3            1 RES     
      13 H3          13.2255     9.8047     8.4433 H3            1 RES     
      14 N4          16.8598    11.1173    11.5428 N4            1 RES     
      15 C1          15.5093    11.0917    11.3437 C1            1 RES     
      16 C1          14.8832     9.9474    10.8199 C1            1 RES     
      17 C1          15.6772     8.8357    10.5326 C1            1 RES     
      18 N4          15.1924     7.6517    10.0781 N4            1 RES     
      19 S2          16.5580     6.7249     9.9886 S2            1 RES     
      20 N4          17.7602     7.7427    10.4957 N4            1 RES     
      21 C1          17.0745     8.8807    10.7667 C1            1 RES     
      22 C1          17.6536    10.0458    11.2626 C1            1 RES     
      23 H5          14.9186    11.9709    11.5860 H5            1 RES     
      24 C0          10.0208    10.8110     7.8838 C0            1 RES     
      25 C0          10.2874    12.3126     8.2788 C0            1 RES     
      26 C0           9.8416    13.1495     7.0285 C0            1 RES     
      27 C0          10.0572    14.6664     7.0980 C0            1 RES     
      28 C0           9.5353    15.3915     5.8352 C0            1 RES     
      29 C0          10.2280    15.0130     4.5075 C0            1 RES     
      30 C0          11.7582    15.1761     4.5056 C0            1 RES     
      31 C0          12.2126    16.6070     4.8442 C0            1 RES     
      32 C0          13.7401    16.7537     4.8966 C0            1 RES     
      33 C0          14.4133    16.5720     3.5257 C0            1 RES     
      34 C0          15.9272    16.8339     3.5685 C0            1 RES     
      35 C0          16.6909    15.8160     4.4164 C0            1 RES     
      36 C0           9.6901    12.8797     9.6080 C0            1 RES     
      37 C0           8.1417    12.9799     9.7664 C0            1 RES     
      38 C0           7.7119    12.1449    10.9764 C0            1 RES     
      39 C0           6.2282    11.8258    11.1364 C0            1 RES     
      40 C0           5.3579    12.9283    11.7217 C0            1 RES     
      41 C0           3.9203    12.3798    11.8389 C0            1 RES     
      42 C0           2.9544    13.3002    12.5886 C0            1 RES     
      43 C0           3.2929    13.4082    14.0769 C0            1 RES     
      44 H6           9.0309    10.8174     7.5046 H6            1 RES     
      45 H6          10.7064    10.6515     7.0211 H6            1 RES     
      46 H6          11.3887    12.4184     8.3993 H6            1 RES     
      47 H6           8.7584    12.9810     6.8420 H6            1 RES     
      48 H6          10.3975    12.7636     6.1473 H6            1 RES     
      49 H6          11.1304    14.8917     7.2633 H6            1 RES     
      50 H6           9.4794    15.0785     7.9498 H6            1 RES     
      51 H6           9.6420    16.4842     5.9961 H6            1 RES     
      52 H6           8.4460    15.1949     5.7230 H6            1 RES     
      53 H6           9.7958    15.6459     3.7006 H6            1 RES     
      54 H6           9.9920    13.9585     4.2494 H6            1 RES     
      55 H6          12.2030    14.4656     5.2339 H6            1 RES     
      56 H6          12.1185    14.8941     3.4945 H6            1 RES     
      57 H6          11.8421    16.8704     5.8558 H6            1 RES     
      58 H6          11.7847    17.3303     4.1159 H6            1 RES     
      59 H6          13.9660    17.7801     5.2595 H6            1 RES     
      60 H6          14.1398    16.0276     5.6353 H6            1 RES     
      61 H6          14.2383    15.5505     3.1290 H6            1 RES     
      62 H6          13.9633    17.3042     2.8203 H6            1 RES     
      63 H6          16.1218    17.8595     3.9514 H6            1 RES     
      64 H6          16.3176    16.7735     2.5297 H6            1 RES     
      65 H6          16.3831    15.8637     5.4804 H6            1 RES     
      66 H6          16.5196    14.7893     4.0287 H6            1 RES     
      67 H6          17.7775    16.0378     4.3664 H6            1 RES     
      68 H6          10.0923    13.9062     9.7456 H6            1 RES     
      69 H6          10.1470    12.3278    10.4572 H6            1 RES     
      70 H6           7.8301    14.0338     9.9433 H6            1 RES     
      71 H6           7.6403    12.6215     8.8445 H6            1 RES     
      72 H6           8.1528    12.5186    11.9245 H6            1 RES     
      73 H6           8.1433    11.1868    10.7783 H6            1 RES     
      74 H6           5.8320    11.4789    10.1789 H6            1 RES     
      75 H6           6.1669    10.9694    11.8459 H6            1 RES     
      76 H6           5.7702    13.1751    12.7230 H6            1 RES     
      77 H6           5.3724    13.8383    11.0854 H6            1 RES     
      78 H6           3.5312    12.2133    10.8088 H6            1 RES     
      79 H6           3.9203    11.3956    12.3604 H6            1 RES     
      80 H6           1.9372    12.8569    12.5116 H6            1 RES     
      81 H6           2.9363    14.3055    12.1176 H6            1 RES     
      82 H6           4.2823    13.8806    14.2356 H6            1 RES     
      83 H6           2.5272    14.0273    14.5869 H6            1 RES     
      84 H6           3.2940    12.3976    14.5432 H6            1 RES     
      85 C0          10.1559     8.2015     7.8296 C0            1 RES     
      86 C0           9.6151     8.1128     6.3310 C0            1 RES     
      87 C0           9.3054     6.6016     6.0613 C0            1 RES     
      88 C0           9.0218     6.2315     4.5914 C0            1 RES     
      89 C0           8.6994     4.7422     4.3764 C0            1 RES     
      90 C0           9.8027     3.7526     4.7916 C0            1 RES     
      91 C0          11.1841     4.0150     4.1691 C0            1 RES     
      92 C0          11.1713     4.0202     2.6303 C0            1 RES     
      93 C0          12.5582     4.2888     2.0240 C0            1 RES     
      94 C0          13.5614     3.1540     2.2977 C0            1 RES     
      95 C0          14.9090     3.3602     1.5887 C0            1 RES     
      96 C0          15.6826     4.5738     2.1043 C0            1 RES     
      97 C0           8.4976     9.0475     5.7029 C0            1 RES     
      98 C0           7.0144     8.9823     6.1653 C0            1 RES     
      99 C0           6.6144    10.1954     7.0242 C0            1 RES     
     100 C0           5.2006    10.1986     7.5818 C0            1 RES     
     101 C0           4.0704    10.4627     6.5969 C0            1 RES     
     102 C0           2.7730    10.5889     7.4214 C0            1 RES     
     103 C0           1.5450    11.0095     6.6119 C0            1 RES     
     104 C0           1.6541    12.4446     6.0945 C0            1 RES     
     105 H6           9.7017     7.3731     8.4216 H6            1 RES     
     106 H6          11.2089     7.8460     7.7603 H6            1 RES     
     107 H6          10.5037     8.3830     5.7150 H6            1 RES     
     108 H6           8.4332     6.2942     6.6778 H6            1 RES     
     109 H6          10.1851     6.0104     6.3952 H6            1 RES     
     110 H6           9.8869     6.5317     3.9637 H6            1 RES     
     111 H6           8.1220     6.7641     4.2272 H6            1 RES     
     112 H6           8.4734     4.5977     3.2983 H6            1 RES     
     113 H6           7.7734     4.4840     4.9358 H6            1 RES     
     114 H6           9.4651     2.7303     4.5132 H6            1 RES     
     115 H6           9.9138     3.7702     5.8968 H6            1 RES     
     116 H6          11.5778     4.9874     4.5348 H6            1 RES     
     117 H6          11.8574     3.2158     4.5406 H6            1 RES     
     118 H6          10.5056     4.8363     2.2796 H6            1 RES     
     119 H6          10.7730     3.0567     2.2450 H6            1 RES     
     120 H6          12.4318     4.3814     0.9233 H6            1 RES     
     121 H6          12.9380     5.2573     2.4132 H6            1 RES     
     122 H6          13.7474     3.0407     3.3856 H6            1 RES     
     123 H6          13.1224     2.2060     1.9170 H6            1 RES     
     124 H6          14.7473     3.4580     0.4932 H6            1 RES     
     125 H6          15.5324     2.4576     1.7670 H6            1 RES     
     126 H6          15.1334     5.5163     1.9064 H6            1 RES     
     127 H6          15.8674     4.4761     3.1953 H6            1 RES     
     128 H6          16.6612     4.6328     1.5831 H6            1 RES     
     129 H6           8.4805     8.7793     4.6306 H6            1 RES     
     130 H6           8.8278    10.0952     5.5725 H6            1 RES     
     131 H6           6.3740     9.0640     5.2595 H6            1 RES     
     132 H6           6.7904     8.0074     6.6437 H6            1 RES     
     133 H6           6.8034    11.1408     6.4667 H6            1 RES     
     134 H6           7.2124    10.2166     7.9284 H6            1 RES     
     135 H6           5.0207     9.2674     8.1618 H6            1 RES     
     136 H6           5.1704    11.0624     8.2662 H6            1 RES     
     137 H6           4.2939    11.4157     6.0724 H6            1 RES     
     138 H6           3.9882     9.6448     5.8511 H6            1 RES     
     139 H6           2.5695     9.6038     7.8961 H6            1 RES     
     140 H6           2.9057    11.3347     8.2388 H6            1 RES     
     141 H6           0.6685    10.9675     7.2952 H6            1 RES     
     142 H6           1.3778    10.3015     5.7761 H6            1 RES     
     143 H6           2.4871    12.5527     5.3718 H6            1 RES     
     144 H6           0.7107    12.7213     5.5807 H6            1 RES     
     145 H6           1.8125    13.1482     6.9411 H6            1 RES     
     146 C0          22.9945    10.8050    10.5719 C0            1 RES     
     147 C1          21.5805    10.5370    11.1329 C1            1 RES     
     148 C1          21.6125     9.9754    12.3693 C1            1 RES     
     149 S2          20.0982     9.5871    12.9680 S2            1 RES     
     150 C1          19.3269    10.1260    11.5518 C1            1 RES     
     151 C1          20.2695    10.5983    10.6319 C1            1 RES     
     152 C1          22.9590     9.7801    12.7457 C1            1 RES     
     153 C1          23.7696    10.1571    11.7202 C1            1 RES     
     154 C1          25.1047     9.8590    11.9651 C1            1 RES     
     155 C1          25.2566     9.2763    13.2345 C1            1 RES     
     156 S2          23.7689     9.1138    14.0368 S2            1 RES     
     157 H3          19.9843    10.9117     9.6456 H3            1 RES     
     158 H3          25.9136    10.0463    11.2690 H3            1 RES     
     159 N4          28.2326     8.7770    15.4582 N4            1 RES     
     160 C1          27.0995     9.3185    14.9226 C1            1 RES     
     161 C1          26.4925     8.7405    13.7942 C1            1 RES     
     162 C1          27.0678     7.5886    13.2546 C1            1 RES     
     163 N4          26.5510     6.9006    12.2044 N4            1 RES     
     164 S2          27.5999     5.6306    12.0671 S2            1 RES     
     165 N4          28.6996     5.8941    13.2752 N4            1 RES     
     166 C1          28.2333     7.0346    13.8411 C1            1 RES     
     167 C1          28.8138     7.6575    14.9428 C1            1 RES     
     168 H5          26.6718    10.2107    15.3719 H5            1 RES     
     169 C0          23.4951    12.2831    10.4067 C0            1 RES     
     170 C0          23.9108    13.3460    11.4926 C0            1 RES     
     171 C0          24.1889    14.6646    10.6886 C0            1 RES     
     172 C0          24.6902    15.8719    11.4907 C0            1 RES     
     173 C0          24.8804    17.1261    10.6055 C0            1 RES     
     174 C0          25.9359    17.0045     9.4843 C0            1 RES     
     175 C0          27.3388    16.5854     9.9579 C0            1 RES     
     176 C0          27.9286    17.5379    11.0131 C0            1 RES     
     177 C0          29.3042    17.0869    11.5249 C0            1 RES     
     178 C0          30.4028    17.1573    10.4508 C0            1 RES     
     179 C0          31.7955    16.8142    11.0029 C0            1 RES     
     180 C0          31.9191    15.3619    11.4655 C0            1 RES     
     181 C0          22.9817    13.5951    12.7254 C0            1 RES     
     182 C0          21.5595    14.1942    12.4995 C0            1 RES     
     183 C0          20.5160    13.2120    13.0404 C0            1 RES     
     184 C0          19.0580    13.4246    12.6431 C0            1 RES     
     185 C0          18.2957    14.4934    13.4125 C0            1 RES     
     186 C0          16.8448    14.5058    12.8871 C0            1 RES     
     187 C0          15.8922    15.3955    13.6891 C0            1 RES     
     188 C0          15.6344    14.8502    15.0953 C0            1 RES     
     189 H6          22.7616    12.7824     9.8266 H6            1 RES     
     190 H6          24.4104    12.1924     9.7790 H6            1 RES     
     191 H6          24.8702    12.9923    11.9321 H6            1 RES     
     192 H6          23.2577    14.9804    10.1692 H6            1 RES     
     193 H6          24.9454    14.4323     9.9088 H6            1 RES     
     194 H6          25.6333    15.6162    12.0151 H6            1 RES     
     195 H6          23.9314    16.1451    12.2516 H6            1 RES     
     196 H6          25.1546    17.9753    11.2650 H6            1 RES     
     197 H6          23.9084    17.3942    10.1351 H6            1 RES     
     198 H6          26.0069    17.9885     8.9695 H6            1 RES     
     199 H6          25.5928    16.2692     8.7253 H6            1 RES     
     200 H6          27.2927    15.5569    10.3739 H6            1 RES     
     201 H6          27.9947    16.5594     9.0631 H6            1 RES     
     202 H6          27.2593    17.5515    11.8973 H6            1 RES     
     203 H6          27.9926    18.5713    10.6073 H6            1 RES     
     204 H6          29.5909    17.7654    12.3578 H6            1 RES     
     205 H6          29.2103    16.0579    11.9309 H6            1 RES     
     206 H6          30.1759    16.4762     9.6046 H6            1 RES     
     207 H6          30.4401    18.1986    10.0628 H6            1 RES     
     208 H6          32.0463    17.4964    11.8443 H6            1 RES     
     209 H6          32.5383    16.9781    10.1926 H6            1 RES     
     210 H6          31.2374    15.1480    12.3132 H6            1 RES     
     211 H6          31.6908    14.6718    10.6256 H6            1 RES     
     212 H6          32.9579    15.1727    11.8083 H6            1 RES     
     213 H6          23.5142    14.2870    13.4126 H6            1 RES     
     214 H6          22.9341    12.6574    13.3194 H6            1 RES     
     215 H6          21.4454    15.1576    13.0454 H6            1 RES     
     216 H6          21.3942    14.3870    11.4201 H6            1 RES     
     217 H6          20.6204    13.0455    14.1332 H6            1 RES     
     218 H6          20.7666    12.2948    12.5512 H6            1 RES     
     219 H6          19.0031    13.6011    11.5661 H6            1 RES     
     220 H6          18.5351    12.4619    12.8443 H6            1 RES     
     221 H6          18.3255    14.2094    14.4857 H6            1 RES     
     222 H6          18.7599    15.4942    13.2856 H6            1 RES     
     223 H6          16.8647    14.8607    11.8316 H6            1 RES     
     224 H6          16.4221    13.4753    12.8863 H6            1 RES     
     225 H6          14.9162    15.4118    13.1560 H6            1 RES     
     226 H6          16.2836    16.4334    13.7377 H6            1 RES     
     227 H6          16.5600    14.8409    15.7038 H6            1 RES     
     228 H6          14.8879    15.4892    15.6092 H6            1 RES     
     229 H6          15.2285    13.8156    15.0358 H6            1 RES     
     230 C0          23.0589     9.9981     9.2153 C0            1 RES     
     231 C0          23.1445    10.6378     7.7560 C0            1 RES     
     232 C0          22.6390     9.5391     6.7612 C0            1 RES     
     233 C0          22.8806     9.8315     5.2665 C0            1 RES     
     234 C0          22.3472     8.7374     4.3248 C0            1 RES     
     235 C0          22.9499     7.3348     4.5205 C0            1 RES     
     236 C0          24.4855     7.2706     4.4710 C0            1 RES     
     237 C0          25.0790     7.8118     3.1584 C0            1 RES     
     238 C0          26.6146     7.7454     3.1270 C0            1 RES     
     239 C0          27.1513     6.3029     3.1101 C0            1 RES     
     240 C0          28.6782     6.2325     2.9526 C0            1 RES     
     241 C0          29.4354     6.8192     4.1441 C0            1 RES     
     242 C0          22.6004    12.0718     7.3503 C0            1 RES     
     243 C0          21.0804    12.3990     7.3258 C0            1 RES     
     244 C0          20.6551    13.2965     8.5018 C0            1 RES     
     245 C0          19.1749    13.6244     8.6076 C0            1 RES     
     246 C0          18.6109    14.6072     7.5911 C0            1 RES     
     247 C0          17.1571    14.9064     8.0106 C0            1 RES     
     248 C0          16.4717    15.9995     7.1887 C0            1 RES     
     249 C0          17.0900    17.3782     7.4256 C0            1 RES     
     250 H6          22.2376     9.2442     9.2260 H6            1 RES     
     251 H6          23.9473     9.3292     9.2717 H6            1 RES     
     252 H6          24.2393    10.7586     7.5863 H6            1 RES     
     253 H6          21.5504     9.3799     6.9187 H6            1 RES     
     254 H6          23.1623     8.5906     7.0091 H6            1 RES     
     255 H6          23.9657     9.9909     5.0942 H6            1 RES     
     256 H6          22.3382    10.7471     4.9609 H6            1 RES     
     257 H6          22.5364     9.0681     3.2813 H6            1 RES     
     258 H6          21.2438     8.6602     4.4419 H6            1 RES     
     259 H6          22.5313     6.6716     3.7321 H6            1 RES     
     260 H6          22.6194     6.9271     5.4996 H6            1 RES     
     261 H6          24.9089     7.8399     5.3259 H6            1 RES     
     262 H6          24.7638     6.2051     4.6027 H6            1 RES     
     263 H6          24.8032     8.8820     3.0541 H6            1 RES     
     264 H6          24.6612     7.2586     2.2896 H6            1 RES     
     265 H6          26.9541     8.2523     2.1976 H6            1 RES     
     266 H6          27.0155     8.3083     3.9966 H6            1 RES     
     267 H6          26.8654     5.7608     4.0349 H6            1 RES     
     268 H6          26.6988     5.7765     2.2415 H6            1 RES     
     269 H6          28.9854     6.7550     2.0207 H6            1 RES     
     270 H6          28.9648     5.1627     2.8598 H6            1 RES     
     271 H6          29.2316     7.9030     4.2577 H6            1 RES     
     272 H6          29.1507     6.2898     5.0783 H6            1 RES     
     273 H6          30.5266     6.6918     3.9833 H6            1 RES     
     274 H6          22.9464    12.2171     6.3105 H6            1 RES     
     275 H6          23.1784    12.9010     7.7998 H6            1 RES     
     276 H6          20.8822    13.0174     6.4227 H6            1 RES     
     277 H6          20.4767    11.4735     7.2338 H6            1 RES     
     278 H6          21.2520    14.2367     8.5039 H6            1 RES     
     279 H6          20.8388    12.7831     9.4390 H6            1 RES     
     280 H6          18.5804    12.6854     8.6335 H6            1 RES     
     281 H6          19.0707    14.1450     9.5738 H6            1 RES     
     282 H6          19.2273    15.5299     7.6338 H6            1 RES     
     283 H6          18.6489    14.1886     6.5638 H6            1 RES     
     284 H6          16.5709    13.9659     7.9161 H6            1 RES     
     285 H6          17.1201    15.2194     9.0795 H6            1 RES     
     286 H6          15.4118    16.0481     7.5222 H6            1 RES     
     287 H6          16.4935    15.7382     6.1122 H6            1 RES     
     288 H6          18.1412    17.4162     7.0771 H6            1 RES     
     289 H6          16.5107    18.1405     6.8654 H6            1 RES     
     290 H6          17.0551    17.6352     8.5071 H6            1 RES     
     291 C0          34.0209     6.5955    16.0988 C0            1 RES     
     292 C1          32.4792     6.6880    16.0847 C1            1 RES     
     293 C1          31.8982     5.7636    16.8929 C1            1 RES     
     294 S2          30.2253     5.7760    16.8302 S2            1 RES     
     295 C1          30.2119     7.0138    15.6646 C1            1 RES     
     296 C1          31.5189     7.3945    15.3415 C1            1 RES     
     297 C1          32.9092     4.9715    17.4786 C1            1 RES     
     298 C1          34.1188     5.3548    16.9877 C1            1 RES     
     299 C1          35.1486     4.5235    17.4119 C1            1 RES     
     300 C1          34.6570     3.5255    18.2701 C1            1 RES     
     301 S2          32.9781     3.6529    18.4901 S2            1 RES     
     302 H3          31.7208     8.1108    14.5678 H3            1 RES     
     303 H3          36.1853     4.6296    17.1155 H3            1 RES     
     304 N4          36.3306     1.2351    20.7203 N4            1 RES     
     305 C1          35.6491     2.3032    20.2115 C1            1 RES     
     306 C1          35.4220     2.4164    18.8290 C1            1 RES     
     307 C1          35.8920     1.3972    17.9989 C1            1 RES     
     308 N4          35.6904     1.3552    16.6569 N4            1 RES     
     309 S2          36.3992    -0.0786    16.2405 S2            1 RES     
     310 N4          36.9654    -0.6716    17.6779 N4            1 RES     
     311 C1          36.5797     0.2888    18.5539 C1            1 RES     
     312 C1          36.8036     0.2333    19.9271 C1            1 RES     
     313 H5          35.2887     3.0752    20.8859 H5            1 RES     
     314 C0          34.8602     7.7460    16.7580 C0            1 RES     
     315 C0          35.0407     8.1365    18.2736 C0            1 RES     
     316 C0          35.8965     9.4516    18.2577 C0            1 RES     
     317 C0          36.2968    10.0336    19.6191 C0            1 RES     
     318 C0          37.0919    11.3535    19.4819 C0            1 RES     
     319 C0          38.4471    11.2493    18.7482 C0            1 RES     
     320 C0          39.4208    10.2096    19.3303 C0            1 RES     
     321 C0          39.7444    10.4515    20.8154 C0            1 RES     
     322 C0          40.6717     9.3810    21.4084 C0            1 RES     
     323 C0          42.0895     9.4107    20.8130 C0            1 RES     
     324 C0          43.0401     8.4131    21.4938 C0            1 RES     
     325 C0          42.6472     6.9534    21.2634 C0            1 RES     
     326 C0          33.7827     8.2658    19.1933 C0            1 RES     
     327 C0          32.7344     9.3825    18.8987 C0            1 RES     
     328 C0          31.3731     8.7293    18.6415 C0            1 RES     
     329 C0          30.2745     9.5844    18.0166 C0            1 RES     
     330 C0          29.5288    10.5210    18.9559 C0            1 RES     
     331 C0          28.4425    11.2449    18.1330 C0            1 RES     
     332 C0          27.4746    12.0852    18.9692 C0            1 RES     
     333 C0          26.5718    11.2224    19.8534 C0            1 RES     
     334 H6          34.5436     8.6466    16.2971 H6            1 RES     
     335 H6          35.9034     7.5494    16.4221 H6            1 RES     
     336 H6          35.6463     7.3275    18.7398 H6            1 RES     
     337 H6          35.3390    10.2451    17.7136 H6            1 RES     
     338 H6          36.8264     9.2434    17.6864 H6            1 RES     
     339 H6          36.8764     9.2859    20.1978 H6            1 RES     
     340 H6          35.3815    10.2845    20.1922 H6            1 RES     
     341 H6          37.2660    11.7586    20.5002 H6            1 RES     
     342 H6          36.4681    12.1037    18.9473 H6            1 RES     
     343 H6          38.9305    12.2514    18.7732 H6            1 RES     
     344 H6          38.2758    11.0023    17.6786 H6            1 RES     
     345 H6          38.9886     9.1941    19.2075 H6            1 RES     
     346 H6          40.3517    10.2562    18.7279 H6            1 RES     
     347 H6          38.8029    10.4027    21.3995 H6            1 RES     
     348 H6          40.1897    11.4611    20.9538 H6            1 RES     
     349 H6          40.7511     9.5740    22.5005 H6            1 RES     
     350 H6          40.2005     8.3861    21.2643 H6            1 RES     
     351 H6          42.0680     9.1980    19.7241 H6            1 RES     
     352 H6          42.5057    10.4307    20.9632 H6            1 RES     
     353 H6          43.0849     8.6197    22.5854 H6            1 RES     
     354 H6          44.0574     8.5628    21.0721 H6            1 RES     
     355 H6          41.6586     6.7252    21.7103 H6            1 RES     
     356 H6          42.6200     6.7312    20.1754 H6            1 RES     
     357 H6          43.3981     6.2908    21.7425 H6            1 RES     
     358 H6          34.1417     8.4307    20.2317 H6            1 RES     
     359 H6          33.2994     7.2678    19.2628 H6            1 RES     
     360 H6          32.6319    10.0678    19.7698 H6            1 RES     
     361 H6          33.0532     9.9828    18.0225 H6            1 RES     
     362 H6          31.0006     8.1693    19.5250 H6            1 RES     
     363 H6          31.5855     8.0143    17.8754 H6            1 RES     
     364 H6          30.6872    10.1294    17.1641 H6            1 RES     
     365 H6          29.5155     8.8748    17.6154 H6            1 RES     
     366 H6          29.0714     9.8936    19.7500 H6            1 RES     
     367 H6          30.2148    11.2593    19.4223 H6            1 RES     
     368 H6          28.9530    11.9091    17.3992 H6            1 RES     
     369 H6          27.8371    10.5098    17.5552 H6            1 RES     
     370 H6          26.8160    12.6412    18.2662 H6            1 RES     
     371 H6          28.0349    12.8216    19.5829 H6            1 RES     
     372 H6          27.1573    10.6648    20.6108 H6            1 RES     
     373 H6          25.8453    11.8702    20.3847 H6            1 RES     
     374 H6          26.0036    10.4979    19.2282 H6            1 RES     
     375 C0          34.4320     6.3439    14.5944 C0            1 RES     
     376 C0          35.2227     7.3697    13.6623 C0            1 RES     
     377 C0          34.9184     6.9497    12.1847 C0            1 RES     
     378 C0          35.7853     7.6306    11.1064 C0            1 RES     
     379 C0          35.4362     7.2065     9.6689 C0            1 RES     
     380 C0          35.5868     5.7064     9.3592 C0            1 RES     
     381 C0          36.9628     5.1054     9.6909 C0            1 RES     
     382 C0          38.1276     5.8094     8.9727 C0            1 RES     
     383 C0          39.4960     5.2003     9.3187 C0            1 RES     
     384 C0          39.6623     3.7634     8.7925 C0            1 RES     
     385 C0          41.0716     3.1976     9.0270 C0            1 RES     
     386 C0          41.4100     3.0151    10.5066 C0            1 RES     
     387 C0          35.2139     8.9481    13.8226 C0            1 RES     
     388 C0          33.9391     9.7960    13.5510 C0            1 RES     
     389 C0          33.2968    10.3206    14.8478 C0            1 RES     
     390 C0          32.0065    11.1095    14.6980 C0            1 RES     
     391 C0          32.1196    12.5166    14.1282 C0            1 RES     
     392 C0          30.7235    13.1626    14.2398 C0            1 RES     
     393 C0          30.6762    14.6422    13.8540 C0            1 RES     
     394 C0          31.4408    15.5247    14.8418 C0            1 RES     
     395 H6          33.5276     5.9899    14.0469 H6            1 RES     
     396 H6          35.0548     5.4211    14.5729 H6            1 RES     
     397 H6          36.2934     7.1317    13.8596 H6            1 RES     
     398 H6          33.8494     7.1566    11.9614 H6            1 RES     
     399 H6          35.0782     5.8530    12.1042 H6            1 RES     
     400 H6          36.8569     7.4304    11.3164 H6            1 RES     
     401 H6          35.6239     8.7259    11.1179 H6            1 RES     
     402 H6          36.0879     7.7837     8.9787 H6            1 RES     
     403 H6          34.3882     7.5035     9.4443 H6            1 RES     
     404 H6          35.3755     5.5594     8.2774 H6            1 RES     
     405 H6          34.8172     5.1368     9.9226 H6            1 RES     
     406 H6          37.1315     5.1465    10.7882 H6            1 RES     
     407 H6          36.9235     4.0375     9.3941 H6            1 RES     
     408 H6          38.1594     6.8710     9.2955 H6            1 RES     
     409 H6          37.9729     5.7850     7.8723 H6            1 RES     
     410 H6          40.2762     5.8351     8.8449 H6            1 RES     
     411 H6          39.6375     5.2391    10.4197 H6            1 RES     
     412 H6          38.9240     3.0801     9.2604 H6            1 RES     
     413 H6          39.4824     3.7748     7.6953 H6            1 RES     
     414 H6          41.8272     3.8587     8.5496 H6            1 RES     
     415 H6          41.1268     2.2006     8.5391 H6            1 RES     
     416 H6          41.4236     3.9867    11.0403 H6            1 RES     
     417 H6          40.6720     2.3391    10.9887 H6            1 RES     
     418 H6          42.4190     2.5609    10.5982 H6            1 RES     
     419 H6          35.9630     9.3063    13.0929 H6            1 RES     
     420 H6          35.7373     9.2972    14.7325 H6            1 RES     
     421 H6          34.2535    10.7151    13.0090 H6            1 RES     
     422 H6          33.2312     9.2495    12.8954 H6            1 RES     
     423 H6          34.0372    10.9133    15.4316 H6            1 RES     
     424 H6          32.9794     9.4857    15.4625 H6            1 RES     
     425 H6          31.2576    10.5072    14.1392 H6            1 RES     
     426 H6          31.6498    11.2633    15.7298 H6            1 RES     
     427 H6          32.8576    13.0730    14.7438 H6            1 RES     
     428 H6          32.4639    12.4962    13.0733 H6            1 RES     
     429 H6          30.0289    12.5976    13.5799 H6            1 RES     
     430 H6          30.3404    13.0770    15.2828 H6            1 RES     
     431 H6          29.6100    14.9572    13.8821 H6            1 RES     
     432 H6          31.0602    14.7807    12.8239 H6            1 RES     
     433 H6          32.5244    15.2930    14.8377 H6            1 RES     
     434 H6          31.3123    16.5891    14.5572 H6            1 RES     
     435 H6          31.0422    15.3856    15.8708 H6            1 RES     
     436 C0          40.7633    -2.9915    21.7979 C0            1 RES     
     437 C1          39.4129    -2.3419    21.4233 C1            1 RES     
     438 C1          38.3723    -3.2070    21.5415 C1            1 RES     
     439 S2          36.9063    -2.5618    21.0548 S2            1 RES     
     440 C1          37.6259    -1.0846    20.6178 C1            1 RES     
     441 C1          39.0039    -1.1228    20.8575 C1            1 RES     
     442 C1          38.8696    -4.4642    21.9476 C1            1 RES     
     443 C1          40.2270    -4.4065    22.0200 C1            1 RES     
     444 C1          40.7957    -5.6485    22.2756 C1            1 RES     
     445 C1          39.7989    -6.6273    22.4266 C1            1 RES     
     446 S2          38.2420    -5.9782    22.2313 S2            1 RES     
     447 H3          39.6463    -0.3105    20.5751 H3            1 RES     
     448 H3          41.8609    -5.8342    22.3430 H3            1 RES     
     449 N4          39.8242   -10.0661    23.9179 N4            1 RES     
     450 C1          39.6521    -8.7179    23.7887 C1            1 RES     
     451 C1          40.0169    -8.0589    22.6019 C1            1 RES     
     452 C1          40.5364    -8.8246    21.5566 C1            1 RES     
     453 N4          40.8736    -8.3228    20.3408 N4            1 RES     
     454 S2          41.3522    -9.6772    19.5232 S2            1 RES     
     455 N4          41.1622   -10.8939    20.6286 N4            1 RES     
     456 C1          40.6869   -10.2258    21.7086 C1            1 RES     
     457 C1          40.3357   -10.8306    22.9126 C1            1 RES     
     458 H5          39.2368    -8.1522    24.6182 H5            1 RES     
     459 C0          41.5088    -2.5330    23.1005 C0            1 RES     
     460 C0          41.1617    -2.7859    24.6163 C0            1 RES     
     461 C0          42.2233    -1.9578    25.4223 C0            1 RES     
     462 C0          42.1755    -2.0724    26.9510 C0            1 RES     
     463 C0          43.2314    -1.1762    27.6398 C0            1 RES     
     464 C0          44.7061    -1.5089    27.3228 C0            1 RES     
     465 C0          45.1166    -2.9651    27.6041 C0            1 RES     
     466 C0          44.8764    -3.3881    29.0642 C0            1 RES     
     467 C0          45.2343    -4.8576    29.3286 C0            1 RES     
     468 C0          46.7402    -5.1456    29.2065 C0            1 RES     
     469 C0          47.1007    -6.5910    29.5848 C0            1 RES     
     470 C0          46.5169    -7.6283    28.6250 C0            1 RES     
     471 C0          39.7065    -2.5313    25.1287 C0            1 RES     
     472 C0          39.1336    -1.0807    25.1077 C0            1 RES     
     473 C0          37.8745    -1.0573    24.2359 C0            1 RES     
     474 C0          37.3284     0.2999    23.8019 C0            1 RES     
     475 C0          36.5017     1.0574    24.8306 C0            1 RES     
     476 C0          36.0152     2.3652    24.1717 C0            1 RES     
     477 C0          35.0092     3.1566    25.0107 C0            1 RES     
     478 C0          33.6651     2.4363    25.1372 C0            1 RES     
     479 H6          41.6065    -1.4797    23.0320 H6            1 RES     
     480 H6          42.5283    -2.9689    22.9990 H6            1 RES     
     481 H6          41.3402    -3.8678    24.8066 H6            1 RES     
     482 H6          42.1149    -0.8800    25.1713 H6            1 RES     
     483 H6          43.2315    -2.2809    25.0851 H6            1 RES     
     484 H6          42.3001    -3.1308    27.2580 H6            1 RES     
     485 H6          41.1890    -1.7185    27.3128 H6            1 RES     
     486 H6          43.0771    -1.2421    28.7367 H6            1 RES     
     487 H6          43.0506    -0.1147    27.3599 H6            1 RES     
     488 H6          45.3499    -0.8290    27.9243 H6            1 RES     
     489 H6          44.9181    -1.2897    26.2545 H6            1 RES     
     490 H6          44.5539    -3.6415    26.9266 H6            1 RES     
     491 H6          46.1944    -3.0576    27.3559 H6            1 RES     
     492 H6          43.7959    -3.2874    29.2930 H6            1 RES     
     493 H6          45.4433    -2.7270    29.7558 H6            1 RES     
     494 H6          44.9194    -5.0976    30.3676 H6            1 RES     
     495 H6          44.6498    -5.4947    28.6320 H6            1 RES     
     496 H6          47.1012    -4.9449    28.1765 H6            1 RES     
     497 H6          47.2789    -4.4688    29.9052 H6            1 RES     
     498 H6          46.7582    -6.8064    30.6205 H6            1 RES     
     499 H6          48.2075    -6.6886    29.5601 H6            1 RES     
     500 H6          45.4085    -7.6178    28.6433 H6            1 RES     
     501 H6          46.8704    -7.4341    27.5900 H6            1 RES     
     502 H6          46.8525    -8.6414    28.9306 H6            1 RES     
     503 H6          39.6561    -2.8794    26.1826 H6            1 RES     
     504 H6          39.0266    -3.2404    24.6097 H6            1 RES     
     505 H6          38.8521    -0.7524    26.1334 H6            1 RES     
     506 H6          39.8950    -0.3759    24.7162 H6            1 RES     
     507 H6          37.0712    -1.7101    24.6379 H6            1 RES     
     508 H6          38.2064    -1.4879    23.3151 H6            1 RES     
     509 H6          38.1521     0.9143    23.4301 H6            1 RES     
     510 H6          36.6511     0.1037    22.9398 H6            1 RES     
     511 H6          35.6428     0.4084    25.1037 H6            1 RES     
     512 H6          37.0946     1.2826    25.7422 H6            1 RES     
     513 H6          36.9060     3.0057    23.9807 H6            1 RES     
     514 H6          35.5386     2.1518    23.1879 H6            1 RES     
     515 H6          34.8203     4.1212    24.4903 H6            1 RES     
     516 H6          35.4317     3.3753    26.0139 H6            1 RES     
     517 H6          33.7671     1.4783    25.6841 H6            1 RES     
     518 H6          32.9516     3.0783    25.6925 H6            1 RES     
     519 H6          33.2427     2.2348    24.1274 H6            1 RES     
     520 C0          41.6648    -2.8392    20.5097 C0            1 RES     
     521 C0          42.9637    -1.9206    20.3868 C0            1 RES     
     522 C0          43.1787    -1.6610    18.8575 C0            1 RES     
     523 C0          44.5266    -1.0176    18.4739 C0            1 RES     
     524 C0          44.6850    -0.7590    16.9652 C0            1 RES     
     525 C0          44.6086    -2.0030    16.0620 C0            1 RES     
     526 C0          45.5738    -3.1409    16.4339 C0            1 RES     
     527 C0          47.0514    -2.7112    16.4458 C0            1 RES     
     528 C0          48.0023    -3.8583    16.8241 C0            1 RES     
     529 C0          48.0388    -4.9785    15.7692 C0            1 RES     
     530 C0          49.0795    -6.0647    16.0828 C0            1 RES     
     531 C0          48.7606    -6.8579    17.3501 C0            1 RES     
     532 C0          43.2426    -0.6093    21.2352 C0            1 RES     
     533 C0          42.3990     0.6842    21.0528 C0            1 RES     
     534 C0          41.4330     0.9242    22.2270 C0            1 RES     
     535 C0          40.5147     2.1303    22.1177 C0            1 RES     
     536 C0          41.1509     3.5013    22.2983 C0            1 RES     
     537 C0          40.0040     4.5323    22.3194 C0            1 RES     
     538 C0          40.4410     5.9612    22.6476 C0            1 RES     
     539 C0          40.9314     6.1018    24.0894 C0            1 RES     
     540 H6          40.9938    -2.6245    19.6456 H6            1 RES     
     541 H6          42.0248    -3.8572    20.2372 H6            1 RES     
     542 H6          43.7894    -2.5867    20.7282 H6            1 RES     
     543 H6          42.3579    -1.0135    18.4803 H6            1 RES     
     544 H6          43.1099    -2.6391    18.3346 H6            1 RES     
     545 H6          45.3565    -1.6557    18.8434 H6            1 RES     
     546 H6          44.6206    -0.0162    18.9369 H6            1 RES     
     547 H6          45.6655    -0.2605    16.8090 H6            1 RES     
     548 H6          43.9034    -0.0408    16.6331 H6            1 RES     
     549 H6          44.8119    -1.6784    15.0180 H6            1 RES     
     550 H6          43.5743    -2.4078    16.0827 H6            1 RES     
     551 H6          45.3029    -3.5466    17.4320 H6            1 RES     
     552 H6          45.4185    -3.9464    15.6874 H6            1 RES     
     553 H6          47.1883    -1.9174    17.2095 H6            1 RES     
     554 H6          47.3397    -2.2951    15.4562 H6            1 RES     
     555 H6          49.0253    -3.4319    16.9122 H6            1 RES     
     556 H6          47.7051    -4.2573    17.8172 H6            1 RES     
     557 H6          47.0447    -5.4602    15.6652 H6            1 RES     
     558 H6          48.3113    -4.5235    14.7919 H6            1 RES     
     559 H6          50.0879    -5.6054    16.1733 H6            1 RES     
     560 H6          49.0994    -6.7775    15.2304 H6            1 RES     
     561 H6          48.7786    -6.2081    18.2482 H6            1 RES     
     562 H6          47.7629    -7.3381    17.2616 H6            1 RES     
     563 H6          49.5249    -7.6516    17.4875 H6            1 RES     
     564 H6          44.2771    -0.3219    20.9718 H6            1 RES     
     565 H6          43.4301    -0.8141    22.3060 H6            1 RES     
     566 H6          43.0960     1.5503    21.0892 H6            1 RES     
     567 H6          41.9032     0.6981    20.0611 H6            1 RES     
     568 H6          41.9962     0.9632    23.1869 H6            1 RES     
     569 H6          40.7234     0.1068    22.2899 H6            1 RES     
     570 H6          39.9319     2.0775    21.1725 H6            1 RES     
     571 H6          39.8255     2.0371    22.9731 H6            1 RES     
     572 H6          41.6915     3.4988    23.2684 H6            1 RES     
     573 H6          41.8678     3.7224    21.4802 H6            1 RES     
     574 H6          39.5176     4.5268    21.3191 H6            1 RES     
     575 H6          39.2337     4.2381    23.0691 H6            1 RES     
     576 H6          39.5478     6.6141    22.5343 H6            1 RES     
     577 H6          41.2187     6.2962    21.9329 H6            1 RES     
     578 H6          41.8490     5.5061    24.2654 H6            1 RES     
     579 H6          41.1643     7.1668    24.2947 H6            1 RES     
     580 H6          40.1411     5.7719    24.7989 H6            1 RES     
     581 C0          42.4220   -15.7139    24.0871 C0            1 RES     
     582 C1          41.5075   -14.5285    23.7075 C1            1 RES     
     583 C1          40.3405   -14.9354    23.1438 C1            1 RES     
     584 S2          39.3657   -13.6726    22.6363 S2            1 RES     
     585 C1          40.5068   -12.5091    23.1209 C1            1 RES     
     586 C1          41.6344   -13.1299    23.6694 C1            1 RES     
     587 C1          40.3465   -16.3440    23.0517 C1            1 RES     
     588 C1          41.5426   -16.8165    23.4955 C1            1 RES     
     589 C1          41.6749   -18.1861    23.3006 C1            1 RES     
     590 C1          40.5090   -18.7187    22.7251 C1            1 RES     
     591 S2          39.3395   -17.5201    22.4438 S2            1 RES     
     592 H3          42.4987   -12.5659    23.9647 H3            1 RES     
     593 H3          42.5583   -18.7601    23.5536 H3            1 RES     
     594 N4          39.1845   -22.2142    22.4470 N4            1 RES     
     595 C1          39.3803   -20.9418    22.9017 C1            1 RES     
     596 C1          40.3176   -20.0958    22.2840 C1            1 RES     
     597 C1          41.0219   -20.5861    21.1829 C1            1 RES     
     598 N4          41.9111   -19.8559    20.4621 N4            1 RES     
     599 S2          42.3591   -20.9185    19.2780 S2            1 RES     
     600 N4          41.4862   -22.2821    19.6199 N4            1 RES     
     601 C1          40.7862   -21.9043    20.7180 C1            1 RES     
     602 C1          39.8662   -22.7144    21.3785 C1            1 RES     
     603 H5          38.8094   -20.5877    23.7557 H5            1 RES     
     604 C0          42.6781   -16.0413    25.6004 C0            1 RES     
     605 C0          41.7175   -16.6567    26.6869 C0            1 RES     
     606 C0          42.5324   -16.6090    28.0271 C0            1 RES     
     607 C0          41.8644   -17.2190    29.2656 C0            1 RES     
     608 C0          42.7354   -17.0697    30.5352 C0            1 RES     
     609 C0          44.1026   -17.7879    30.5014 C0            1 RES     
     610 C0          44.0360   -19.2934    30.1900 C0            1 RES     
     611 C0          43.1549   -20.0757    31.1801 C0            1 RES     
     612 C0          43.0451   -21.5677    30.8346 C0            1 RES     
     613 C0          44.3736   -22.3259    30.9953 C0            1 RES     
     614 C0          44.2268   -23.8374    30.7584 C0            1 RES     
     615 C0          43.8524   -24.1878    29.3178 C0            1 RES     
     616 C0          40.2737   -16.0808    26.8571 C0            1 RES     
     617 C0          40.0919   -14.6106    27.3451 C0            1 RES     
     618 C0          39.3151   -13.8276    26.2823 C0            1 RES     
     619 C0          39.2986   -12.3050    26.3832 C0            1 RES     
     620 C0          38.3248   -11.7035    27.3858 C0            1 RES     
     621 C0          38.4387   -10.1677    27.2882 C0            1 RES     
     622 C0          37.3868    -9.4056    28.0974 C0            1 RES     
     623 C0          35.9777    -9.5792    27.5267 C0            1 RES     
     624 H6          43.0256   -15.1435    26.0442 H6            1 RES     
     625 H6          43.5315   -16.7563    25.5841 H6            1 RES     
     626 H6          41.5624   -17.7224    26.4064 H6            1 RES     
     627 H6          42.7729   -15.5514    28.2723 H6            1 RES     
     628 H6          43.4931   -17.1408    27.8580 H6            1 RES     
     629 H6          41.6208   -18.2850    29.0812 H6            1 RES     
     630 H6          40.9202   -16.6770    29.4753 H6            1 RES     
     631 H6          42.1527   -17.4494    31.3998 H6            1 RES     
     632 H6          42.9190   -15.9897    30.7294 H6            1 RES     
     633 H6          44.5919   -17.6444    31.4905 H6            1 RES     
     634 H6          44.7596   -17.3068    29.7455 H6            1 RES     
     635 H6          43.6497   -19.4373    29.1589 H6            1 RES     
     636 H6          45.0751   -19.6823    30.2194 H6            1 RES     
     637 H6          42.1229   -19.6719    31.1372 H6            1 RES     
     638 H6          43.5361   -19.9514    32.2174 H6            1 RES     
     639 H6          42.3032   -22.0188    31.5290 H6            1 RES     
     640 H6          42.6556   -21.6630    29.7993 H6            1 RES     
     641 H6          45.1445   -21.9287    30.3029 H6            1 RES     
     642 H6          44.7303   -22.1802    32.0383 H6            1 RES     
     643 H6          43.4669   -24.2560    31.4538 H6            1 RES     
     644 H6          45.2029   -24.3186    30.9835 H6            1 RES     
     645 H6          42.8580   -23.7789    29.0474 H6            1 RES     
     646 H6          44.6171   -23.7916    28.6163 H6            1 RES     
     647 H6          43.8076   -25.2915    29.2080 H6            1 RES     
     648 H6          39.7380   -16.7274    27.5846 H6            1 RES     
     649 H6          39.7133   -16.2648    25.9155 H6            1 RES     
     650 H6          39.5108   -14.5784    28.2941 H6            1 RES     
     651 H6          41.0814   -14.1453    27.5300 H6            1 RES     
     652 H6          38.2957   -14.2362    26.1189 H6            1 RES     
     653 H6          39.8773   -14.0028    25.3897 H6            1 RES     
     654 H6          40.3159   -11.9476    26.5603 H6            1 RES     
     655 H6          38.9887   -11.9283    25.3819 H6            1 RES     
     656 H6          37.3071   -12.0439    27.0996 H6            1 RES     
     657 H6          38.5463   -12.0414    28.4202 H6            1 RES     
     658 H6          39.4508    -9.8748    27.6489 H6            1 RES     
     659 H6          38.3520    -9.8373    26.2281 H6            1 RES     
     660 H6          37.6361    -8.3231    28.0407 H6            1 RES     
     661 H6          37.4188    -9.7184    29.1623 H6            1 RES     
     662 H6          35.6419   -10.6332    27.5862 H6            1 RES     
     663 H6          35.2651    -8.9551    28.1033 H6            1 RES     
     664 H6          35.9521    -9.2493    26.4640 H6            1 RES     
     665 C0          43.7661   -15.4672    23.2945 C0            1 RES     
     666 C0          45.1774   -15.1069    23.9461 C0            1 RES     
     667 C0          46.0269   -14.4327    22.8165 C0            1 RES     
     668 C0          47.5233   -14.2381    23.1342 C0            1 RES     
     669 C0          48.3140   -13.5511    22.0068 C0            1 RES     
     670 C0          48.3245   -14.2855    20.6542 C0            1 RES     
     671 C0          48.7881   -15.7506    20.7095 C0            1 RES     
     672 C0          50.1978   -15.9248    21.3017 C0            1 RES     
     673 C0          50.6440   -17.3950    21.3547 C0            1 RES     
     674 C0          50.8424   -18.0113    19.9583 C0            1 RES     
     675 C0          51.4078   -19.4393    20.0073 C0            1 RES     
     676 C0          50.4501   -20.4459    20.6449 C0            1 RES     
     677 C0          45.3840   -14.3697    25.3356 C0            1 RES     
     678 C0          44.9890   -12.8802    25.5441 C0            1 RES     
     679 C0          43.7191   -12.7249    26.4000 C0            1 RES     
     680 C0          43.2094   -11.3089    26.6117 C0            1 RES     
     681 C0          44.0103   -10.4201    27.5528 C0            1 RES     
     682 C0          43.2066    -9.1165    27.7363 C0            1 RES     
     683 C0          43.7845    -8.1558    28.7771 C0            1 RES     
     684 C0          43.6877    -8.7125    30.1983 C0            1 RES     
     685 H6          43.5537   -14.7370    22.4791 H6            1 RES     
     686 H6          43.9688   -16.3842    22.6962 H6            1 RES     
     687 H6          45.6330   -16.1029    24.1524 H6            1 RES     
     688 H6          45.5856   -13.4422    22.5726 H6            1 RES     
     689 H6          45.9540   -15.0717    21.9103 H6            1 RES     
     690 H6          47.9778   -15.2212    23.3782 H6            1 RES     
     691 H6          47.6474   -13.5676    24.0066 H6            1 RES     
     692 H6          49.3610   -13.4257    22.3565 H6            1 RES     
     693 H6          47.9056   -12.5295    21.8437 H6            1 RES     
     694 H6          48.9876   -13.7186    19.9645 H6            1 RES     
     695 H6          47.3034   -14.2634    20.2173 H6            1 RES     
     696 H6          48.0648   -16.3469    21.3057 H6            1 RES     
     697 H6          48.7639   -16.1314    19.6682 H6            1 RES     
     698 H6          50.1961   -15.5534    22.3478 H6            1 RES     
     699 H6          50.9356   -15.3289    20.7222 H6            1 RES     
     700 H6          51.6172   -17.4318    21.8910 H6            1 RES     
     701 H6          49.9007   -17.9742    21.9427 H6            1 RES     
     702 H6          49.8891   -18.0272    19.3910 H6            1 RES     
     703 H6          51.5699   -17.3801    19.4027 H6            1 RES     
     704 H6          52.3742   -19.4432    20.5567 H6            1 RES     
     705 H6          51.6021   -19.7676    18.9635 H6            1 RES     
     706 H6          50.2577   -20.2016    21.7091 H6            1 RES     
     707 H6          49.4877   -20.4646    20.0905 H6            1 RES     
     708 H6          50.9026   -21.4590    20.6034 H6            1 RES     
     709 H6          46.4745   -14.4094    25.5126 H6            1 RES     
     710 H6          45.0859   -14.9856    26.2049 H6            1 RES     
     711 H6          45.7889   -12.4000    26.1498 H6            1 RES     
     712 H6          44.9386   -12.3437    24.5750 H6            1 RES     
     713 H6          43.8539   -13.2295    27.3837 H6            1 RES     
     714 H6          42.8799   -13.1929    25.8977 H6            1 RES     
     715 H6          43.0484   -10.8141    25.6292 H6            1 RES     
     716 H6          42.2378   -11.4327    27.1178 H6            1 RES     
     717 H6          44.1117   -10.9557    28.5203 H6            1 RES     
     718 H6          45.0202   -10.2089    27.1436 H6            1 RES     
     719 H6          43.1636    -8.5972    26.7536 H6            1 RES     
     720 H6          42.1596    -9.3477    28.0401 H6            1 RES     
     721 H6          43.1763    -7.2253    28.7416 H6            1 RES     
     722 H6          44.8334    -7.9041    28.5236 H6            1 RES     
     723 H6          44.3059    -9.6241    30.3195 H6            1 RES     
     724 H6          44.0510    -7.9488    30.9162 H6            1 RES     
     725 H6          42.6307    -8.9532    30.4465 H6            1 RES     
     726 C0          40.1860   -28.1032    20.7177 C0            1 RES     
     727 C1          39.7811   -26.6129    20.6904 C1            1 RES     
     728 C1          38.8703   -26.3420    19.7197 C1            1 RES     
     729 S2          38.4790   -24.7186    19.6027 S2            1 RES     
     730 C1          39.5653   -24.2991    20.8415 C1            1 RES     
     731 C1          40.2192   -25.4381    21.3240 C1            1 RES     
     732 C1          38.5998   -27.5292    19.0055 C1            1 RES     
     733 C1          39.3888   -28.5290    19.4838 C1            1 RES     
     734 C1          39.2798   -29.6932    18.7328 C1            1 RES     
     735 C1          38.3468   -29.5271    17.6954 C1            1 RES     
     736 S2          37.6788   -27.9660    17.6911 S2            1 RES     
     737 H3          40.9999   -25.3696    22.0577 H3            1 RES     
     738 H3          39.8420   -30.6001    18.9205 H3            1 RES     
     739 N4          36.4991   -31.9654    15.5295 N4            1 RES     
     740 C1          36.7774   -31.0951    16.5441 C1            1 RES     
     741 C1          38.0439   -30.4941    16.6462 C1            1 RES     
     742 C1          38.9961   -30.7950    15.6706 C1            1 RES     
     743 N4          40.2345   -30.2408    15.6199 N4            1 RES     
     744 S2          40.8637   -30.9134    14.2475 S2            1 RES     
     745 N4          39.6481   -31.8898    13.6930 N4            1 RES     
     746 C1          38.6760   -31.6866    14.6162 C1            1 RES     
     747 C1          37.4161   -32.2778    14.5713 C1            1 RES     
     748 H5          36.0111   -30.8754    17.2824 H5            1 RES     
     749 C0          39.7482   -29.0031    21.9265 C0            1 RES     
     750 C0          38.3280   -29.5584    22.3222 C0            1 RES     
     751 C0          38.5402   -30.2792    23.6998 C0            1 RES     
     752 C0          37.3228   -30.9896    24.3043 C0            1 RES     
     753 C0          37.6353   -31.6188    25.6825 C0            1 RES     
     754 C0          38.7099   -32.7283    25.6874 C0            1 RES     
     755 C0          38.4391   -33.8968    24.7234 C0            1 RES     
     756 C0          37.0907   -34.5921    24.9823 C0            1 RES     
     757 C0          36.7977   -35.7213    23.9839 C0            1 RES     
     758 C0          37.7526   -36.9185    24.1264 C0            1 RES     
     759 C0          37.3796   -38.0885    23.2022 C0            1 RES     
     760 C0          37.5330   -37.7560    21.7175 C0            1 RES     
     761 C0          37.0999   -28.5908    22.3490 C0            1 RES     
     762 C0          37.0719   -27.4230    23.3825 C0            1 RES     
     763 C0          36.9689   -26.0946    22.6270 C0            1 RES     
     764 C0          37.2519   -24.8081    23.3975 C0            1 RES     
     765 C0          36.1224   -24.2784    24.2687 C0            1 RES     
     766 C0          36.6027   -22.9597    24.9103 C0            1 RES     
     767 C0          35.5149   -22.1957    25.6688 C0            1 RES     
     768 C0          34.4425   -21.6321    24.7342 C0            1 RES     
     769 H6          40.0832   -28.5083    22.8022 H6            1 RES     
     770 H6          40.3581   -29.9277    21.8131 H6            1 RES     
     771 H6          38.0635   -30.3253    21.5603 H6            1 RES     
     772 H6          38.8930   -29.5385    24.4504 H6            1 RES     
     773 H6          39.3464   -31.0321    23.5672 H6            1 RES     
     774 H6          36.9414   -31.7575    23.6009 H6            1 RES     
     775 H6          36.5177   -30.2480    24.4806 H6            1 RES     
     776 H6          36.6917   -32.0322    26.0948 H6            1 RES     
     777 H6          37.9622   -30.8202    26.3848 H6            1 RES     
     778 H6          38.7904   -33.1256    26.7238 H6            1 RES     
     779 H6          39.6996   -32.2921    25.4332 H6            1 RES     
     780 H6          38.4669   -33.5231    23.6781 H6            1 RES     
     781 H6          39.2690   -34.6236    24.8451 H6            1 RES     
     782 H6          36.2757   -33.8504    24.8576 H6            1 RES     
     783 H6          37.0516   -34.9831    26.0226 H6            1 RES     
     784 H6          35.7630   -36.0793    24.1771 H6            1 RES     
     785 H6          36.8351   -35.3030    22.9562 H6            1 RES     
     786 H6          38.8005   -36.6185    23.9182 H6            1 RES     
     787 H6          37.6941   -37.2840    25.1749 H6            1 RES     
     788 H6          36.3356   -38.4123    23.4062 H6            1 RES     
     789 H6          38.0561   -38.9397    23.4324 H6            1 RES     
     790 H6          36.8420   -36.9450    21.4112 H6            1 RES     
     791 H6          38.5787   -37.4513    21.4994 H6            1 RES     
     792 H6          37.2916   -38.6551    21.1128 H6            1 RES     
     793 H6          36.1930   -29.2047    22.5361 H6            1 RES     
     794 H6          36.9284   -28.2189    21.3162 H6            1 RES     
     795 H6          36.1879   -27.5104    24.0534 H6            1 RES     
     796 H6          37.9857   -27.4474    24.0101 H6            1 RES     
     797 H6          36.0324   -26.0175    22.0354 H6            1 RES     
     798 H6          37.7822   -26.1432    21.9344 H6            1 RES     
     799 H6          38.1698   -24.9333    23.9771 H6            1 RES     
     800 H6          37.4516   -24.0229    22.6332 H6            1 RES     
     801 H6          35.2508   -24.1006    23.6038 H6            1 RES     
     802 H6          35.8395   -25.0090    25.0557 H6            1 RES     
     803 H6          37.4296   -23.2021    25.6157 H6            1 RES     
     804 H6          37.0145   -22.2760    24.1334 H6            1 RES     
     805 H6          35.9996   -21.3324    26.1756 H6            1 RES     
     806 H6          35.0564   -22.8458    26.4433 H6            1 RES     
     807 H6          33.8859   -22.4402    24.2199 H6            1 RES     
     808 H6          33.7184   -21.0314    25.3210 H6            1 RES     
     809 H6          34.9097   -20.9704    23.9709 H6            1 RES     
     810 C0          41.7515   -28.1085    20.5063 C0            1 RES     
     811 C0          42.8355   -28.5396    21.5949 C0            1 RES     
     812 C0          44.1865   -27.8779    21.1600 C0            1 RES     
     813 C0          45.4408   -28.3678    21.9115 C0            1 RES     
     814 C0          46.7413   -27.6742    21.4688 C0            1 RES     
     815 C0          47.1187   -27.8448    19.9864 C0            1 RES     
     816 C0          47.1863   -29.2994    19.4923 C0            1 RES     
     817 C0          48.1737   -30.1711    20.2881 C0            1 RES     
     818 C0          48.2256   -31.6229    19.7852 C0            1 RES     
     819 C0          48.8140   -31.7452    18.3682 C0            1 RES     
     820 C0          48.9832   -33.2028    17.9122 C0            1 RES     
     821 C0          47.6550   -33.9420    17.7491 C0            1 RES     
     822 C0          42.6381   -28.4589    23.1670 C0            1 RES     
     823 C0          42.5337   -27.0996    23.9149 C0            1 RES     
     824 C0          41.0986   -26.7962    24.3816 C0            1 RES     
     825 C0          40.8742   -25.4593    25.0689 C0            1 RES     
     826 C0          41.4169   -25.3104    26.4833 C0            1 RES     
     827 C0          40.9161   -23.9533    27.0186 C0            1 RES     
     828 C0          41.2365   -23.6949    28.4919 C0            1 RES     
     829 C0          40.4692   -24.6317    29.4261 C0            1 RES     
     830 H6          42.0436   -27.1180    20.0859 H6            1 RES     
     831 H6          41.9641   -28.7681    19.6347 H6            1 RES     
     832 H6          42.9406   -29.6382    21.4397 H6            1 RES     
     833 H6          44.1077   -26.7762    21.2845 H6            1 RES     
     834 H6          44.3354   -28.0898    20.0794 H6            1 RES     
     835 H6          45.5330   -29.4679    21.7939 H6            1 RES     
     836 H6          45.3579   -28.1357    22.9909 H6            1 RES     
     837 H6          47.5666   -28.0704    22.0982 H6            1 RES     
     838 H6          46.6670   -26.5857    21.6848 H6            1 RES     
     839 H6          48.1068   -27.3595    19.8289 H6            1 RES     
     840 H6          46.3835   -27.3005    19.3561 H6            1 RES     
     841 H6          46.1745   -29.7557    19.5409 H6            1 RES     
     842 H6          47.4889   -29.2595    18.4261 H6            1 RES     
     843 H6          47.8441   -30.2113    21.3473 H6            1 RES     
     844 H6          49.1918   -29.7262    20.2573 H6            1 RES     
     845 H6          48.8758   -32.1967    20.4810 H6            1 RES     
     846 H6          47.2030   -32.0542    19.8293 H6            1 RES     
     847 H6          48.1821   -31.2135    17.6273 H6            1 RES     
     848 H6          49.8214   -31.2744    18.3710 H6            1 RES     
     849 H6          49.6295   -33.7502    18.6323 H6            1 RES     
     850 H6          49.4935   -33.1967    16.9250 H6            1 RES     
     851 H6          47.1198   -34.0284    18.7161 H6            1 RES     
     852 H6          47.0093   -33.4138    17.0155 H6            1 RES     
     853 H6          47.8508   -34.9685    17.3740 H6            1 RES     
     854 H6          43.5334   -28.9539    23.5860 H6            1 RES     
     855 H6          41.8945   -29.1823    23.5511 H6            1 RES     
     856 H6          43.1165   -27.1872    24.8583 H6            1 RES     
     857 H6          42.9878   -26.2826    23.3185 H6            1 RES     
     858 H6          40.7211   -27.6215    25.0271 H6            1 RES     
     859 H6          40.4428   -26.7193    23.5216 H6            1 RES     
     860 H6          41.2256   -24.6333    24.4131 H6            1 RES     
     861 H6          39.7809   -25.3853    25.1894 H6            1 RES     
     862 H6          41.0091   -26.1447    27.0922 H6            1 RES     
     863 H6          42.5258   -25.3564    26.4950 H6            1 RES     
     864 H6          41.3784   -23.1492    26.4047 H6            1 RES     
     865 H6          39.8110   -23.8745    26.8983 H6            1 RES     
     866 H6          40.9136   -22.6561    28.7231 H6            1 RES     
     867 H6          42.3281   -23.7742    28.6649 H6            1 RES     
     868 H6          40.7715   -25.6876    29.2792 H6            1 RES     
     869 H6          40.6810   -24.3533    30.4788 H6            1 RES     
     870 H6          39.3748   -24.5383    29.2514 H6            1 RES     
     871 C0          36.7669   -36.8215    11.6540 C0            1 RES     
     872 C1          36.7464   -35.3764    12.1988 C1            1 RES     
     873 C1          36.3742   -34.4731    11.2550 C1            1 RES     
     874 S2          36.4305   -32.8868    11.7871 S2            1 RES     
     875 C1          37.0071   -33.3508    13.3178 C1            1 RES     
     876 C1          37.1492   -34.7411    13.3853 C1            1 RES     
     877 C1          36.1499   -35.1526    10.0382 C1            1 RES     
     878 C1          36.4450   -36.4707    10.2005 C1            1 RES     
     879 C1          36.3845   -37.1768     9.0051 C1            1 RES     
     880 C1          35.9955   -36.3328     7.9513 C1            1 RES     
     881 S2          35.7467   -34.7380     8.4786 S2            1 RES     
     882 H3          37.5734   -35.2216    14.2464 H3            1 RES     
     883 H3          36.6119   -38.2311     8.9023 H3            1 RES     
     884 N4          34.6556   -37.0133     4.5173 N4            1 RES     
     885 C1          34.6988   -36.7143     5.8488 C1            1 RES     
     886 C1          35.9225   -36.6945     6.5400 C1            1 RES     
     887 C1          37.0887   -36.9659     5.8222 C1            1 RES     
     888 N4          38.3369   -36.9233     6.3546 N4            1 RES     
     889 S2          39.2881   -37.2603     5.0456 S2            1 RES     
     890 N4          38.2042   -37.4666     3.8123 N4            1 RES     
     891 C1          37.0191   -37.2542     4.4361 C1            1 RES     
     892 C1          35.7811   -37.2878     3.7998 C1            1 RES     
     893 H5          33.7736   -36.4990     6.3764 H5            1 RES     
     894 C0          35.7024   -37.8565    12.1624 C0            1 RES     
     895 C0          34.1563   -37.9527    11.8758 C0            1 RES     
     896 C0          33.6455   -39.1294    12.7796 C0            1 RES     
     897 C0          32.1641   -39.5061    12.6540 C0            1 RES     
     898 C0          31.7629   -40.6406    13.6260 C0            1 RES     
     899 C0          32.4745   -41.9945    13.4102 C0            1 RES     
     900 C0          32.3521   -42.5714    11.9888 C0            1 RES     
     901 C0          30.8928   -42.7675    11.5411 C0            1 RES     
     902 C0          30.7728   -43.2904    10.1025 C0            1 RES     
     903 C0          31.3040   -44.7238     9.9328 C0            1 RES     
     904 C0          31.0745   -45.2783     8.5178 C0            1 RES     
     905 C0          31.8677   -44.5338     7.4431 C0            1 RES     
     906 C0          33.2639   -36.6762    12.0142 C0            1 RES     
     907 C0          33.0920   -36.0144    13.4160 C0            1 RES     
     908 C0          33.5909   -34.5679    13.3461 C0            1 RES     
     909 C0          33.8262   -33.8267    14.6591 C0            1 RES     
     910 C0          32.5934   -33.2566    15.3450 C0            1 RES     
     911 C0          33.0626   -32.5152    16.6145 C0            1 RES     
     912 C0          31.9631   -31.7190    17.3212 C0            1 RES     
     913 C0          31.4973   -30.5161    16.4982 C0            1 RES     
     914 H6          35.7675   -37.8546    13.2204 H6            1 RES     
     915 H6          36.0865   -38.8394    11.8073 H6            1 RES     
     916 H6          34.0492   -38.2548    10.8100 H6            1 RES     
     917 H6          33.8301   -38.8783    13.8470 H6            1 RES     
     918 H6          34.2505   -40.0293    12.5374 H6            1 RES     
     919 H6          31.9295   -39.7865    11.6070 H6            1 RES     
     920 H6          31.5405   -38.6314    12.9285 H6            1 RES     
     921 H6          30.6672   -40.7946    13.5428 H6            1 RES     
     922 H6          31.9561   -40.3134    14.6717 H6            1 RES     
     923 H6          32.0517   -42.7255    14.1349 H6            1 RES     
     924 H6          33.5544   -41.8923    13.6505 H6            1 RES     
     925 H6          32.8699   -41.8973    11.2743 H6            1 RES     
     926 H6          32.8842   -43.5453    11.9814 H6            1 RES     
     927 H6          30.3784   -41.7851    11.5567 H6            1 RES     
     928 H6          30.3630   -43.4506    12.2407 H6            1 RES     
     929 H6          29.6939   -43.2874     9.8337 H6            1 RES     
     930 H6          31.3020   -42.5874     9.4256 H6            1 RES     
     931 H6          32.3877   -44.7764    10.1660 H6            1 RES     
     932 H6          30.7594   -45.3805    10.6458 H6            1 RES     
     933 H6          29.9908   -45.2460     8.2714 H6            1 RES     
     934 H6          31.3995   -46.3410     8.5065 H6            1 RES     
     935 H6          31.5507   -43.4742     7.3676 H6            1 RES     
     936 H6          32.9542   -44.5784     7.6694 H6            1 RES     
     937 H6          31.6902   -45.0130     6.4576 H6            1 RES     
     938 H6          32.2448   -36.9389    11.6580 H6            1 RES     
     939 H6          33.5983   -35.9350    11.2571 H6            1 RES     
     940 H6          32.0203   -35.9981    13.7164 H6            1 RES     
     941 H6          33.6562   -36.5874    14.1797 H6            1 RES     
     942 H6          33.0040   -33.9537    12.6310 H6            1 RES     
     943 H6          34.5778   -34.6684    12.9472 H6            1 RES     
     944 H6          34.3905   -34.4715    15.3373 H6            1 RES     
     945 H6          34.4784   -32.9573    14.4153 H6            1 RES     
     946 H6          32.1156   -32.5537    14.6300 H6            1 RES     
     947 H6          31.8701   -34.0561    15.6110 H6            1 RES     
     948 H6          33.4703   -33.2715    17.3230 H6            1 RES     
     949 H6          33.8865   -31.8068    16.3696 H6            1 RES     
     950 H6          32.3882   -31.3259    18.2709 H6            1 RES     
     951 H6          31.1058   -32.3804    17.5670 H6            1 RES     
     952 H6          31.0232   -30.8324    15.5483 H6            1 RES     
     953 H6          30.7537   -29.9347    17.0802 H6            1 RES     
     954 H6          32.3605   -29.8517    16.2696 H6            1 RES     
     955 C0          38.2463   -37.3265    11.8821 C0            1 RES     
     956 C0          38.6913   -38.4725    12.8994 C0            1 RES     
     957 C0          40.2147   -38.2454    13.1825 C0            1 RES     
     958 C0          40.9310   -39.3880    13.9304 C0            1 RES     
     959 C0          42.4193   -39.1122    14.2080 C0            1 RES     
     960 C0          43.3002   -38.8853    12.9664 C0            1 RES     
     961 C0          43.2320   -39.9958    11.9049 C0            1 RES     
     962 C0          43.6082   -41.3857    12.4478 C0            1 RES     
     963 C0          43.5302   -42.4850    11.3760 C0            1 RES     
     964 C0          44.5844   -42.3162    10.2673 C0            1 RES     
     965 C0          44.5914   -43.4797     9.2636 C0            1 RES     
     966 C0          43.3059   -43.5753     8.4416 C0            1 RES     
     967 C0          37.9161   -38.8740    14.2241 C0            1 RES     
     968 C0          37.8306   -37.9201    15.4491 C0            1 RES     
     969 C0          36.4336   -37.2936    15.6077 C0            1 RES     
     970 C0          36.2598   -36.2943    16.7394 C0            1 RES     
     971 C0          36.2223   -36.8534    18.1547 C0            1 RES     
     972 C0          35.8659   -35.6827    19.0936 C0            1 RES     
     973 C0          35.6310   -36.0863    20.5503 C0            1 RES     
     974 C0          34.3719   -36.9375    20.7214 C0            1 RES     
     975 H6          38.8914   -36.4326    12.0486 H6            1 RES     
     976 H6          38.6320   -37.6728    10.8966 H6            1 RES     
     977 H6          38.6027   -39.4064    12.2976 H6            1 RES     
     978 H6          40.3396   -37.3080    13.7663 H6            1 RES     
     979 H6          40.7247   -38.1094    12.2046 H6            1 RES     
     980 H6          40.8158   -40.3314    13.3567 H6            1 RES     
     981 H6          40.4848   -39.5304    14.9337 H6            1 RES     
     982 H6          42.8214   -39.9744    14.7818 H6            1 RES     
     983 H6          42.5095   -38.2194    14.8651 H6            1 RES     
     984 H6          44.3515   -38.7737    13.3110 H6            1 RES     
     985 H6          43.0117   -37.9279    12.4825 H6            1 RES     
     986 H6          42.2086   -40.0361    11.4744 H6            1 RES     
     987 H6          43.9294   -39.7035    11.0936 H6            1 RES     
     988 H6          42.8895   -41.6659    13.2460 H6            1 RES     
     989 H6          44.6277   -41.3637    12.8900 H6            1 RES     
     990 H6          43.7105   -43.4594    11.8800 H6            1 RES     
     991 H6          42.5044   -42.4982    10.9502 H6            1 RES     
     992 H6          44.4287   -41.3693     9.7106 H6            1 RES     
     993 H6          45.5869   -42.2796    10.7470 H6            1 RES     
     994 H6          44.7646   -44.4384     9.7992 H6            1 RES     
     995 H6          45.4357   -43.3200     8.5587 H6            1 RES     
     996 H6          42.4296   -43.7883     9.0864 H6            1 RES     
     997 H6          43.1343   -42.6288     7.8860 H6            1 RES     
     998 H6          43.4005   -44.4041     7.7089 H6            1 RES     
     999 H6          38.4413   -39.7745    14.5921 H6            1 RES     
    1000 H6          36.9413   -39.3593    14.0291 H6            1 RES     
    1001 H6          37.9613   -38.5355    16.3665 H6            1 RES     
    1002 H6          38.6511   -37.1745    15.4295 H6            1 RES     
    1003 H6          35.6605   -38.0915    15.6854 H6            1 RES     
    1004 H6          36.2026   -36.6896    14.7373 H6            1 RES     
    1005 H6          37.0138   -35.4826    16.6463 H6            1 RES     
    1006 H6          35.2529   -35.8714    16.5888 H6            1 RES     
    1007 H6          35.4344   -37.6353    18.1893 H6            1 RES     
    1008 H6          37.1974   -37.3035    18.4348 H6            1 RES     
    1009 H6          36.6976   -34.9452    19.0554 H6            1 RES     
    1010 H6          34.9440   -35.1682    18.7368 H6            1 RES     
    1011 H6          35.4822   -35.1506    21.1326 H6            1 RES     
    1012 H6          36.5201   -36.6145    20.9483 H6            1 RES     
    1013 H6          34.4655   -37.9095    20.1978 H6            1 RES     
    1014 H6          34.2096   -37.1386    21.8002 H6            1 RES     
    1015 H6          33.4842   -36.3954    20.3277 H6            1 RES     
    1016 C0          35.3395   -39.9664    -0.9127 C0            1 RES     
    1017 C1          35.4276   -38.8989     0.2001 C1            1 RES     
    1018 C1          35.6657   -37.6559    -0.2933 C1            1 RES     
    1019 S2          35.8586   -36.4902     0.8926 S2            1 RES     
    1020 C1          35.6701   -37.6315     2.1386 C1            1 RES     
    1021 C1          35.4624   -38.9079     1.6045 C1            1 RES     
    1022 C1          35.7925   -37.7399    -1.6968 C1            1 RES     
    1023 C1          35.7002   -39.0429    -2.0773 C1            1 RES     
    1024 C1          35.9588   -39.2174    -3.4315 C1            1 RES     
    1025 C1          36.2119   -37.9814    -4.0500 C1            1 RES     
    1026 S2          36.1362   -36.6949    -2.9443 S2            1 RES     
    1027 H3          35.3967   -39.7761     2.2323 H3            1 RES     
    1028 H3          35.9685   -40.1758    -3.9365 H3            1 RES     
    1029 N4          36.2125   -36.8910    -7.6363 N4            1 RES     
    1030 C1          35.7948   -37.1089    -6.3548 C1            1 RES     
    1031 C1          36.6204   -37.7791    -5.4356 C1            1 RES     
    1032 C1          37.8830   -38.1926    -5.8643 C1            1 RES     
    1033 N4          38.7979   -38.7972    -5.0638 N4            1 RES     
    1034 S2          40.0860   -38.9841    -6.0825 S2            1 RES     
    1035 N4          39.5566   -38.3389    -7.5114 N4            1 RES     
    1036 C1          38.3009   -37.9370    -7.1945 C1            1 RES     
    1037 C1          37.4379   -37.2924    -8.0768 C1            1 RES     
    1038 H5          34.8096   -36.7664    -6.0504 H5            1 RES     
    1039 C0          33.9604   -40.6463    -1.2269 C0            1 RES     
    1040 C0          32.6713   -40.0639    -1.9203 C0            1 RES     
    1041 C0          31.5999   -41.2057    -1.8163 C0            1 RES     
    1042 C0          30.2433   -40.9449    -2.4825 C0            1 RES     
    1043 C0          29.2524   -42.1141    -2.2725 C0            1 RES     
    1044 C0          29.6724   -43.4697    -2.8823 C0            1 RES     
    1045 C0          29.9930   -43.4318    -4.3869 C0            1 RES     
    1046 C0          28.8224   -42.9118    -5.2400 C0            1 RES     
    1047 C0          29.1639   -42.8221    -6.7343 C0            1 RES     
    1048 C0          29.3872   -44.1963    -7.3880 C0            1 RES     
    1049 C0          29.6147   -44.1019    -8.9051 C0            1 RES     
    1050 C0          30.9094   -43.3778    -9.2763 C0            1 RES     
    1051 C0          32.1031   -38.6820    -1.4590 C0            1 RES     
    1052 C0          31.5462   -38.5321    -0.0098 C0            1 RES     
    1053 C0          32.3395   -37.4411     0.7159 C0            1 RES     
    1054 C0          32.1986   -37.3410     2.2321 C0            1 RES     
    1055 C0          30.9552   -36.6340     2.7512 C0            1 RES     
    1056 C0          31.0402   -36.6044     4.2918 C0            1 RES     
    1057 C0          29.9578   -35.7581     4.9659 C0            1 RES     
    1058 C0          30.1315   -34.2638     4.6865 C0            1 RES     
    1059 H6          33.6038   -41.0343    -0.3071 H6            1 RES     
    1060 H6          34.2248   -41.5133    -1.8734 H6            1 RES     
    1061 H6          32.9270   -39.9171    -2.9935 H6            1 RES     
    1062 H6          31.4015   -41.4255    -0.7445 H6            1 RES     
    1063 H6          32.0357   -42.1210    -2.2712 H6            1 RES     
    1064 H6          30.3826   -40.7392    -3.5633 H6            1 RES     
    1065 H6          29.7727   -40.0558    -2.0163 H6            1 RES     
    1066 H6          28.2727   -41.8169    -2.7005 H6            1 RES     
    1067 H6          29.0871   -42.2637    -1.1825 H6            1 RES     
    1068 H6          28.8486   -44.1968    -2.7062 H6            1 RES     
    1069 H6          30.5648   -43.8602    -2.3479 H6            1 RES     
    1070 H6          30.8850   -42.7921    -4.5551 H6            1 RES     
    1071 H6          30.2551   -44.4655    -4.6942 H6            1 RES     
    1072 H6          28.5748   -41.8800    -4.9173 H6            1 RES     
    1073 H6          27.9236   -43.5496    -5.0918 H6            1 RES     
    1074 H6          28.3070   -42.3313    -7.2451 H6            1 RES     
    1075 H6          30.0578   -42.1746    -6.8544 H6            1 RES     
    1076 H6          30.2515   -44.7194    -6.9288 H6            1 RES     
    1077 H6          28.4758   -44.8106    -7.2203 H6            1 RES     
    1078 H6          28.7510   -43.5918    -9.3849 H6            1 RES     
    1079 H6          29.6738   -45.1351    -9.3104 H6            1 RES     
    1080 H6          30.8908   -42.3202    -8.9444 H6            1 RES     
    1081 H6          31.7807   -43.8926    -8.8186 H6            1 RES     
    1082 H6          31.0315   -43.3860   -10.3797 H6            1 RES     
    1083 H6          31.2749   -38.4125    -2.1488 H6            1 RES     
    1084 H6          32.8630   -37.9025    -1.6812 H6            1 RES     
    1085 H6          30.4752   -38.2292    -0.0275 H6            1 RES     
    1086 H6          31.6233   -39.4978     0.5299 H6            1 RES     
    1087 H6          32.2323   -36.4483     0.2303 H6            1 RES     
    1088 H6          33.3549   -37.7516     0.5893 H6            1 RES     
    1089 H6          32.2934   -38.3392     2.6665 H6            1 RES     
    1090 H6          33.0691   -36.7446     2.5887 H6            1 RES     
    1091 H6          30.9650   -35.6046     2.3344 H6            1 RES     
    1092 H6          30.0280   -37.1517     2.4264 H6            1 RES     
    1093 H6          30.9586   -37.6520     4.6604 H6            1 RES     
    1094 H6          32.0288   -36.2096     4.6197 H6            1 RES     
    1095 H6          30.0518   -35.9027     6.0647 H6            1 RES     
    1096 H6          28.9495   -36.1004     4.6513 H6            1 RES     
    1097 H6          30.0108   -34.0349     3.6093 H6            1 RES     
    1098 H6          29.3681   -33.6904     5.2505 H6            1 RES     
    1099 H6          31.1389   -33.9271     5.0186 H6            1 RES     
    1100 C0          36.4588   -41.0235    -0.5586 C0            1 RES     
    1101 C0          36.2030   -42.5282    -0.0933 C0            1 RES     
    1102 C0          37.5022   -42.9881     0.6504 C0            1 RES     
    1103 C0          37.5951   -44.4961     0.9589 C0            1 RES     
    1104 C0          38.8759   -44.8991     1.7108 C0            1 RES     
    1105 C0          40.1997   -44.5965     0.9862 C0            1 RES     
    1106 C0          40.3093   -45.1638    -0.4388 C0            1 RES     
    1107 C0          40.1242   -46.6900    -0.5062 C0            1 RES     
    1108 C0          40.2315   -47.2404    -1.9375 C0            1 RES     
    1109 C0          41.6451   -47.0976    -2.5296 C0            1 RES     
    1110 C0          41.7874   -47.7581    -3.9097 C0            1 RES     
    1111 C0          40.9412   -47.0855    -4.9907 C0            1 RES     
    1112 C0          34.9022   -43.0491     0.6508 C0            1 RES     
    1113 C0          34.5565   -42.6173     2.1041 C0            1 RES     
    1114 C0          33.3860   -41.6191     2.1562 C0            1 RES     
    1115 C0          33.0082   -41.0835     3.5273 C0            1 RES     
    1116 C0          32.2955   -42.0421     4.4709 C0            1 RES     
    1117 C0          31.8683   -41.2248     5.7072 C0            1 RES     
    1118 C0          30.9976   -41.9911     6.7046 C0            1 RES     
    1119 C0          29.6179   -42.3242     6.1351 C0            1 RES     
    1120 H6          37.1675   -40.5452     0.1569 H6            1 RES     
    1121 H6          37.1130   -41.1232    -1.4541 H6            1 RES     
    1122 H6          36.1531   -43.0944    -1.0519 H6            1 RES     
    1123 H6          37.5923   -42.4258     1.6049 H6            1 RES     
    1124 H6          38.3713   -42.7193     0.0123 H6            1 RES     
    1125 H6          37.5082   -45.0705     0.0128 H6            1 RES     
    1126 H6          36.7715   -44.8025     1.6326 H6            1 RES     
    1127 H6          38.8186   -45.9896     1.9152 H6            1 RES     
    1128 H6          38.8963   -44.3881     2.6984 H6            1 RES     
    1129 H6          41.0278   -45.0044     1.6062 H6            1 RES     
    1130 H6          40.3441   -43.4964     0.9312 H6            1 RES     
    1131 H6          39.5557   -44.6748    -1.0924 H6            1 RES     
    1132 H6          41.3150   -44.8863    -0.8152 H6            1 RES     
    1133 H6          39.1073   -46.9447    -0.1412 H6            1 RES     
    1134 H6          40.8657   -47.1974     0.1481 H6            1 RES     
    1135 H6          39.9788   -48.3225    -1.9015 H6            1 RES     
    1136 H6          39.4799   -46.7288    -2.5756 H6            1 RES     
    1137 H6          41.9343   -46.0300    -2.6166 H6            1 RES     
    1138 H6          42.3599   -47.5990    -1.8412 H6            1 RES     
    1139 H6          41.5194   -48.8349    -3.8414 H6            1 RES     
    1140 H6          42.8530   -47.6858    -4.2167 H6            1 RES     
    1141 H6          39.8586   -47.1714    -4.7675 H6            1 RES     
    1142 H6          41.2157   -46.0130    -5.0812 H6            1 RES     
    1143 H6          41.1294   -47.5828    -5.9654 H6            1 RES     
    1144 H6          35.0272   -44.1466     0.6949 H6            1 RES     
    1145 H6          34.0010   -43.0437     0.0093 H6            1 RES     
    1146 H6          34.1770   -43.5139     2.6419 H6            1 RES     
    1147 H6          35.4619   -42.2670     2.6399 H6            1 RES     
    1148 H6          32.4886   -42.0520     1.6586 H6            1 RES     
    1149 H6          33.6551   -40.7118     1.6270 H6            1 RES     
    1150 H6          33.8976   -40.6264     4.0130 H6            1 RES     
    1151 H6          32.2621   -40.2972     3.3261 H6            1 RES     
    1152 H6          31.4054   -42.4408     3.9399 H6            1 RES     
    1153 H6          32.9564   -42.8850     4.7618 H6            1 RES     
    1154 H6          32.7892   -40.8792     6.2265 H6            1 RES     
    1155 H6          31.2993   -40.3192     5.3940 H6            1 RES     
    1156 H6          30.8436   -41.3296     7.5853 H6            1 RES     
    1157 H6          31.5181   -42.9107     7.0381 H6            1 RES     
    1158 H6          29.6915   -43.0172     5.2735 H6            1 RES     
    1159 H6          29.0052   -42.8115     6.9210 H6            1 RES     
    1160 H6          29.1000   -41.3946     5.8118 H6            1 RES     
    1161 C0          38.2993   -37.8151   -13.4212 C0            1 RES     
    1162 C1          38.1778   -37.3099   -11.9666 C1            1 RES     
    1163 C1          38.8594   -36.1528   -11.7623 C1            1 RES     
    1164 S2          38.8246   -35.6266   -10.1735 S2            1 RES     
    1165 C1          37.9144   -36.9742    -9.6773 C1            1 RES     
    1166 C1          37.6558   -37.8160   -10.7645 C1            1 RES     
    1167 C1          39.5046   -35.7867   -12.9633 C1            1 RES     
    1168 C1          39.2829   -36.7468   -13.9013 C1            1 RES     
    1169 C1          40.0064   -36.5240   -15.0667 C1            1 RES     
    1170 C1          40.7490   -35.3352   -14.9683 C1            1 RES     
    1171 S2          40.5326   -34.5785   -13.4636 S2            1 RES     
    1172 H3          37.1585   -38.7591   -10.6394 H3            1 RES     
    1173 H3          40.0009   -37.1810   -15.9282 H3            1 RES     
    1174 N4          42.3982   -33.1535   -17.5316 N4            1 RES     
    1175 C1          41.4742   -33.6318   -16.6474 C1            1 RES     
    1176 C1          41.7021   -34.8311   -15.9506 C1            1 RES     
    1177 C1          42.9059   -35.5026   -16.1718 C1            1 RES     
    1178 N4          43.2745   -36.6369   -15.5230 N4            1 RES     
    1179 S2          44.7827   -36.9180   -16.1379 S2            1 RES     
    1180 N4          45.0137   -35.6726   -17.2028 N4            1 RES     
    1181 C1          43.8575   -34.9750   -17.0803 C1            1 RES     
    1182 C1          43.5760   -33.7969   -17.7671 C1            1 RES     
    1183 H5          40.5511   -33.0803   -16.4915 H5            1 RES     
    1184 C0          37.0408   -37.7885   -14.3583 C0            1 RES     
    1185 C0          36.2911   -36.5734   -15.0241 C0            1 RES     
    1186 C0          35.0409   -37.2032   -15.7331 C0            1 RES     
    1187 C0          34.1489   -36.2506   -16.5388 C0            1 RES     
    1188 C0          32.9229   -36.9702   -17.1488 C0            1 RES     
    1189 C0          33.2368   -38.0842   -18.1716 C0            1 RES     
    1190 C0          34.1218   -37.6487   -19.3528 C0            1 RES     
    1191 C0          33.5268   -36.4757   -20.1518 C0            1 RES     
    1192 C0          34.4378   -36.0067   -21.2953 C0            1 RES     
    1193 C0          34.5892   -37.0495   -22.4156 C0            1 RES     
    1194 C0          35.4084   -36.5268   -23.6064 C0            1 RES     
    1195 C0          36.8703   -36.2473   -23.2554 C0            1 RES     
    1196 C0          35.9090   -35.3311   -14.1548 C0            1 RES     
    1197 C0          34.8765   -35.4986   -12.9978 C0            1 RES     
    1198 C0          35.5416   -35.0977   -11.6776 C0            1 RES     
    1199 C0          34.8431   -35.4838   -10.3769 C0            1 RES     
    1200 C0          33.6860   -34.5971    -9.9408 C0            1 RES     
    1201 C0          33.1640   -35.1352    -8.5920 C0            1 RES     
    1202 C0          32.1207   -34.2408    -7.9185 C0            1 RES     
    1203 C0          32.7164   -32.9169    -7.4351 C0            1 RES     
    1204 H6          36.2756   -38.3111   -13.8434 H6            1 RES     
    1205 H6          37.3385   -38.4109   -15.2323 H6            1 RES     
    1206 H6          36.9730   -36.1692   -15.8053 H6            1 RES     
    1207 H6          34.3945   -37.6910   -14.9710 H6            1 RES     
    1208 H6          35.4056   -37.9962   -16.4205 H6            1 RES     
    1209 H6          34.7430   -35.7503   -17.3304 H6            1 RES     
    1210 H6          33.7429   -35.4713   -15.8627 H6            1 RES     
    1211 H6          32.2822   -36.2066   -17.6362 H6            1 RES     
    1212 H6          32.3145   -37.4158   -16.3308 H6            1 RES     
    1213 H6          32.2712   -38.4715   -18.5666 H6            1 RES     
    1214 H6          33.7373   -38.9332   -17.6587 H6            1 RES     
    1215 H6          35.1258   -37.3648   -18.9728 H6            1 RES     
    1216 H6          34.2473   -38.5315   -20.0136 H6            1 RES     
    1217 H6          33.4077   -35.6053   -19.4749 H6            1 RES     
    1218 H6          32.5249   -36.7487   -20.5498 H6            1 RES     
    1219 H6          33.9820   -35.0921   -21.7334 H6            1 RES     
    1220 H6          35.4264   -35.7333   -20.8702 H6            1 RES     
    1221 H6          35.0647   -37.9768   -22.0341 H6            1 RES     
    1222 H6          33.5736   -37.3043   -22.7897 H6            1 RES     
    1223 H6          34.9387   -35.6038   -24.0111 H6            1 RES     
    1224 H6          35.3913   -37.3009   -24.4037 H6            1 RES     
    1225 H6          36.9578   -35.4416   -22.4990 H6            1 RES     
    1226 H6          37.3545   -37.1695   -22.8696 H6            1 RES     
    1227 H6          37.4104   -35.9176   -24.1675 H6            1 RES     
    1228 H6          35.5001   -34.5563   -14.8381 H6            1 RES     
    1229 H6          36.8473   -34.8592   -13.7921 H6            1 RES     
    1230 H6          33.9944   -34.8384   -13.1569 H6            1 RES     
    1231 H6          34.5196   -36.5476   -12.9545 H6            1 RES     
    1232 H6          35.8564   -34.0329   -11.6705 H6            1 RES     
    1233 H6          36.4289   -35.6941   -11.6596 H6            1 RES     
    1234 H6          34.5361   -36.5311   -10.4334 H6            1 RES     
    1235 H6          35.6124   -35.4108    -9.5748 H6            1 RES     
    1236 H6          34.0863   -33.5673    -9.8278 H6            1 RES     
    1237 H6          32.8711   -34.5923   -10.6951 H6            1 RES     
    1238 H6          32.7144   -36.1379    -8.7732 H6            1 RES     
    1239 H6          34.0053   -35.2698    -7.8746 H6            1 RES     
    1240 H6          31.7414   -34.7800    -7.0227 H6            1 RES     
    1241 H6          31.2682   -34.0582    -8.6061 H6            1 RES     
    1242 H6          33.0821   -32.3025    -8.2813 H6            1 RES     
    1243 H6          31.9407   -32.3369    -6.8952 H6            1 RES     
    1244 H6          33.5601   -33.1100    -6.7353 H6            1 RES     
    1245 C0          38.9254   -39.2608   -13.3039 C0            1 RES     
    1246 C0          38.1811   -40.6278   -13.6552 C0            1 RES     
    1247 C0          38.9472   -41.7582   -12.8885 C0            1 RES     
    1248 C0          38.5749   -43.2016   -13.2834 C0            1 RES     
    1249 C0          39.3341   -44.2789   -12.4889 C0            1 RES     
    1250 C0          40.8672   -44.2519   -12.6223 C0            1 RES     
    1251 C0          41.3985   -44.2895   -14.0648 C0            1 RES     
    1252 C0          40.9215   -45.5167   -14.8613 C0            1 RES     
    1253 C0          41.4571   -45.5367   -16.3021 C0            1 RES     
    1254 C0          42.9829   -45.7264   -16.3713 C0            1 RES     
    1255 C0          43.5051   -45.8720   -17.8091 C0            1 RES     
    1256 C0          43.3229   -44.6072   -18.6482 C0            1 RES     
    1257 C0          36.6125   -40.8585   -13.5979 C0            1 RES     
    1258 C0          35.8293   -40.8613   -12.2545 C0            1 RES     
    1259 C0          34.9851   -39.5882   -12.0656 C0            1 RES     
    1260 C0          34.2285   -39.4612   -10.7537 C0            1 RES     
    1261 C0          33.0096   -40.3544   -10.5702 C0            1 RES     
    1262 C0          32.3242   -39.9194    -9.2587 C0            1 RES     
    1263 C0          30.9858   -40.6073    -8.9837 C0            1 RES     
    1264 C0          29.9037   -40.1926    -9.9818 C0            1 RES     
    1265 H6          39.3832   -39.3546   -12.2917 H6            1 RES     
    1266 H6          39.8388   -39.2769   -13.9407 H6            1 RES     
    1267 H6          38.3873   -40.7672   -14.7415 H6            1 RES     
    1268 H6          38.7777   -41.6355   -11.7969 H6            1 RES     
    1269 H6          40.0330   -41.6237   -13.0828 H6            1 RES     
    1270 H6          38.7414   -43.3388   -14.3725 H6            1 RES     
    1271 H6          37.5075   -43.3975   -13.0639 H6            1 RES     
    1272 H6          38.9611   -45.2706   -12.8230 H6            1 RES     
    1273 H6          39.0780   -44.1864   -11.4105 H6            1 RES     
    1274 H6          41.2728   -45.1221   -12.0611 H6            1 RES     
    1275 H6          41.2615   -43.3355   -12.1335 H6            1 RES     
    1276 H6          41.0906   -43.3650   -14.5984 H6            1 RES     
    1277 H6          42.5055   -44.2881   -13.9962 H6            1 RES     
    1278 H6          39.8141   -45.4904   -14.9322 H6            1 RES     
    1279 H6          41.2144   -46.4530   -14.3386 H6            1 RES     
    1280 H6          40.9776   -46.3913   -16.8273 H6            1 RES     
    1281 H6          41.1498   -44.5987   -16.8116 H6            1 RES     
    1282 H6          43.5118   -44.8801   -15.8866 H6            1 RES     
    1283 H6          43.2399   -46.6595   -15.8238 H6            1 RES     
    1284 H6          43.0006   -46.7276   -18.3084 H6            1 RES     
    1285 H6          44.5929   -46.0938   -17.7585 H6            1 RES     
    1286 H6          42.2499   -44.3620   -18.7808 H6            1 RES     
    1287 H6          43.8411   -43.7499   -18.1681 H6            1 RES     
    1288 H6          43.7632   -44.7687   -19.6546 H6            1 RES     
    1289 H6          36.4636   -41.8676   -14.0240 H6            1 RES     
    1290 H6          36.0608   -40.3019   -14.3786 H6            1 RES     
    1291 H6          35.0808   -41.6828   -12.3014 H6            1 RES     
    1292 H6          36.5049   -41.0757   -11.4018 H6            1 RES     
    1293 H6          34.2832   -39.4613   -12.9210 H6            1 RES     
    1294 H6          35.6340   -38.7201   -12.0355 H6            1 RES     
    1295 H6          34.9332   -39.5601    -9.8996 H6            1 RES     
    1296 H6          33.8155   -38.4390   -10.7653 H6            1 RES     
    1297 H6          32.3350   -40.1892   -11.4367 H6            1 RES     
    1298 H6          33.2987   -41.4252   -10.5301 H6            1 RES     
    1299 H6          33.0191   -40.1378    -8.4181 H6            1 RES     
    1300 H6          32.1398   -38.8203    -9.2652 H6            1 RES     
    1301 H6          30.6493   -40.2838    -7.9741 H6            1 RES     
    1302 H6          31.1159   -41.7076    -8.9789 H6            1 RES     
    1303 H6          30.1540   -40.5203   -11.0103 H6            1 RES     
    1304 H6          28.9404   -40.6608    -9.6931 H6            1 RES     
    1305 H6          29.7742   -39.0880    -9.9726 H6            1 RES     
    1306 C0          46.3263   -32.7162   -22.3329 C0            1 RES     
    1307 C1          45.7590   -32.7382   -20.8964 C1            1 RES     
    1308 C1          46.5437   -32.0590   -20.0200 C1            1 RES     
    1309 S2          46.0058   -32.1410   -18.4368 S2            1 RES     
    1310 C1          44.7000   -33.1433   -18.8623 C1            1 RES     
    1311 C1          44.7092   -33.3998   -20.2377 C1            1 RES     
    1312 C1          47.6720   -31.5638   -20.7087 C1            1 RES     
    1313 C1          47.6294   -31.9877   -22.0008 C1            1 RES     
    1314 C1          48.7820   -31.6574   -22.7035 C1            1 RES     
    1315 C1          49.6696   -30.9365   -21.8870 C1            1 RES     
    1316 S2          49.0537   -30.7237   -20.3189 S2            1 RES     
    1317 H3          44.0072   -34.0755   -20.6882 H3            1 RES     
    1318 H3          48.9695   -31.9250   -23.7364 H3            1 RES     
    1319 N4          52.6311   -28.7697   -22.6520 N4            1 RES     
    1320 C1          51.3533   -29.1501   -22.3572 C1            1 RES     
    1321 C1          51.0177   -30.5105   -22.2461 C1            1 RES     
    1322 C1          52.0303   -31.4551   -22.4227 C1            1 RES     
    1323 N4          51.8535   -32.7943   -22.2861 N4            1 RES     
    1324 S2          53.3789   -33.3772   -22.5417 S2            1 RES     
    1325 N4          54.2789   -32.0178   -22.8254 N4            1 RES     
    1326 C1          53.3532   -31.0338   -22.7086 C1            1 RES     
    1327 C1          53.6324   -29.6756   -22.8349 C1            1 RES     
    1328 H5          50.5903   -28.3894   -22.2170 H5            1 RES     
    1329 C0          45.5764   -31.9082   -23.4498 C0            1 RES     
    1330 C0          45.4376   -30.3536   -23.6642 C0            1 RES     
    1331 C0          44.4602   -30.1945   -24.8814 C0            1 RES     
    1332 C0          44.1911   -28.7662   -25.3713 C0            1 RES     
    1333 C0          43.1765   -28.7278   -26.5383 C0            1 RES     
    1334 C0          43.6112   -29.4515   -27.8318 C0            1 RES     
    1335 C0          44.9612   -28.9911   -28.4094 C0            1 RES     
    1336 C0          45.0034   -27.4835   -28.7158 C0            1 RES     
    1337 C0          46.3693   -27.0167   -29.2392 C0            1 RES     
    1338 C0          46.7130   -27.5857   -30.6262 C0            1 RES     
    1339 C0          48.0274   -27.0226   -31.1897 C0            1 RES     
    1340 C0          49.2567   -27.4380   -30.3807 C0            1 RES     
    1341 C0          45.0306   -29.4410   -22.4614 C0            1 RES     
    1342 C0          43.6178   -29.6075   -21.8220 C0            1 RES     
    1343 C0          43.7824   -29.9613   -20.3409 C0            1 RES     
    1344 C0          42.5629   -30.4887   -19.5902 C0            1 RES     
    1345 C0          41.5552   -29.4495   -19.1208 C0            1 RES     
    1346 C0          40.4408   -30.1895   -18.3516 C0            1 RES     
    1347 C0          39.4433   -29.2675   -17.6466 C0            1 RES     
    1348 C0          40.0787   -28.5092   -16.4793 C0            1 RES     
    1349 H6          44.5755   -32.2572   -23.4481 H6            1 RES     
    1350 H6          46.0472   -32.2526   -24.3982 H6            1 RES     
    1351 H6          46.4424   -29.9841   -23.9684 H6            1 RES     
    1352 H6          43.4760   -30.6425   -24.6222 H6            1 RES     
    1353 H6          44.8797   -30.7755   -25.7305 H6            1 RES     
    1354 H6          45.1428   -28.2779   -25.6638 H6            1 RES     
    1355 H6          43.7360   -28.1781   -24.5490 H6            1 RES     
    1356 H6          42.9649   -27.6648   -26.7764 H6            1 RES     
    1357 H6          42.2137   -29.1726   -26.2023 H6            1 RES     
    1358 H6          42.8184   -29.2956   -28.5970 H6            1 RES     
    1359 H6          43.6686   -30.5456   -27.6474 H6            1 RES     
    1360 H6          45.7713   -29.2450   -27.6936 H6            1 RES     
    1361 H6          45.1370   -29.5711   -29.3391 H6            1 RES     
    1362 H6          44.8243   -26.9220   -27.7763 H6            1 RES     
    1363 H6          44.2047   -27.2147   -29.4414 H6            1 RES     
    1364 H6          46.3369   -25.9082   -29.3185 H6            1 RES     
    1365 H6          47.1456   -27.2897   -28.4939 H6            1 RES     
    1366 H6          46.7823   -28.6928   -30.5958 H6            1 RES     
    1367 H6          45.8967   -27.3044   -31.3268 H6            1 RES     
    1368 H6          47.9714   -25.9132   -31.2403 H6            1 RES     
    1369 H6          48.1535   -27.4093   -32.2240 H6            1 RES     
    1370 H6          49.2164   -27.0356   -29.3484 H6            1 RES     
    1371 H6          49.3332   -28.5455   -30.3420 H6            1 RES     
    1372 H6          50.1698   -27.0357   -30.8672 H6            1 RES     
    1373 H6          45.1053   -28.3856   -22.8006 H6            1 RES     
    1374 H6          45.8304   -29.5025   -21.6927 H6            1 RES     
    1375 H6          43.0390   -28.6591   -21.8903 H6            1 RES     
    1376 H6          43.0497   -30.3979   -22.3533 H6            1 RES     
    1377 H6          44.2964   -29.1593   -19.7704 H6            1 RES     
    1378 H6          44.4353   -30.8078   -20.3625 H6            1 RES     
    1379 H6          42.0789   -31.2613   -20.1927 H6            1 RES     
    1380 H6          42.9511   -30.9848   -18.6716 H6            1 RES     
    1381 H6          42.0964   -28.7457   -18.4535 H6            1 RES     
    1382 H6          41.1247   -28.8860   -19.9754 H6            1 RES     
    1383 H6          39.8883   -30.8283   -19.0776 H6            1 RES     
    1384 H6          40.8805   -30.8621   -17.5802 H6            1 RES     
    1385 H6          38.6337   -29.9041   -17.2265 H6            1 RES     
    1386 H6          38.9925   -28.5598   -18.3737 H6            1 RES     
    1387 H6          40.8733   -27.8199   -16.8267 H6            1 RES     
    1388 H6          39.3029   -27.9107   -15.9603 H6            1 RES     
    1389 H6          40.5145   -29.2271   -15.7489 H6            1 RES     
    1390 C0          46.5189   -34.2349   -22.7228 C0            1 RES     
    1391 C0          45.6894   -35.0217   -23.8359 C0            1 RES     
    1392 C0          45.8220   -36.5439   -23.4928 C0            1 RES     
    1393 C0          45.3249   -37.5179   -24.5801 C0            1 RES     
    1394 C0          45.4521   -39.0013   -24.1911 C0            1 RES     
    1395 C0          46.8791   -39.4936   -23.8904 C0            1 RES     
    1396 C0          47.9111   -39.2220   -24.9975 C0            1 RES     
    1397 C0          47.5259   -39.8320   -26.3568 C0            1 RES     
    1398 C0          48.5649   -39.5472   -27.4534 C0            1 RES     
    1399 C0          49.9122   -40.2462   -27.1979 C0            1 RES     
    1400 C0          50.9103   -40.0661   -28.3523 C0            1 RES     
    1401 C0          51.3571   -38.6166   -28.5431 C0            1 RES     
    1402 C0          44.2155   -34.6661   -24.3029 C0            1 RES     
    1403 C0          42.9886   -34.8461   -23.3647 C0            1 RES     
    1404 C0          42.4429   -33.5024   -22.8492 C0            1 RES     
    1405 C0          41.2808   -33.5691   -21.8720 C0            1 RES     
    1406 C0          39.9228   -33.9576   -22.4394 C0            1 RES     
    1407 C0          38.8927   -33.7841   -21.3046 C0            1 RES     
    1408 C0          37.4375   -33.9831   -21.7325 C0            1 RES     
    1409 C0          36.9551   -32.8833   -22.6796 C0            1 RES     
    1410 H6          46.5097   -34.8337   -21.7823 H6            1 RES     
    1411 H6          47.5805   -34.3633   -23.0332 H6            1 RES     
    1412 H6          46.2688   -34.8420   -24.7708 H6            1 RES     
    1413 H6          45.2696   -36.7533   -22.5514 H6            1 RES     
    1414 H6          46.8974   -36.7584   -23.3127 H6            1 RES     
    1415 H6          45.8704   -37.3209   -25.5267 H6            1 RES     
    1416 H6          44.2424   -37.3720   -24.7616 H6            1 RES     
    1417 H6          45.0306   -39.6059   -25.0224 H6            1 RES     
    1418 H6          44.8209   -39.2005   -23.2973 H6            1 RES     
    1419 H6          46.8282   -40.5879   -23.6993 H6            1 RES     
    1420 H6          47.2424   -39.0154   -22.9558 H6            1 RES     
    1421 H6          48.0504   -38.1260   -25.1148 H6            1 RES     
    1422 H6          48.8727   -39.6500   -24.6480 H6            1 RES     
    1423 H6          46.5709   -39.3790   -26.6958 H6            1 RES     
    1424 H6          47.3749   -40.9287   -26.2580 H6            1 RES     
    1425 H6          48.1536   -39.9282   -28.4134 H6            1 RES     
    1426 H6          48.6984   -38.4482   -27.5439 H6            1 RES     
    1427 H6          50.3817   -39.8765   -26.2630 H6            1 RES     
    1428 H6          49.7201   -41.3356   -27.0859 H6            1 RES     
    1429 H6          50.4662   -40.4477   -29.2972 H6            1 RES     
    1430 H6          51.8124   -40.6737   -28.1241 H6            1 RES     
    1431 H6          50.5055   -37.9659   -28.8266 H6            1 RES     
    1432 H6          51.8212   -38.2320   -27.6100 H6            1 RES     
    1433 H6          52.1093   -38.5695   -29.3584 H6            1 RES     
    1434 H6          44.0262   -35.3359   -25.1618 H6            1 RES     
    1435 H6          44.1527   -33.7132   -24.8613 H6            1 RES     
    1436 H6          42.1567   -35.2653   -23.9726 H6            1 RES     
    1437 H6          43.2096   -35.5736   -22.5576 H6            1 RES     
    1438 H6          42.1800   -32.8399   -23.7050 H6            1 RES     
    1439 H6          43.2027   -33.0006   -22.2605 H6            1 RES     
    1440 H6          41.5529   -34.2080   -21.0039 H6            1 RES     
    1441 H6          41.1432   -32.5308   -21.5277 H6            1 RES     
    1442 H6          39.6971   -33.2681   -23.2802 H6            1 RES     
    1443 H6          39.9279   -35.0024   -22.8139 H6            1 RES     
    1444 H6          39.1348   -34.5180   -20.5046 H6            1 RES     
    1445 H6          38.9741   -32.7649   -20.8613 H6            1 RES     
    1446 H6          36.8127   -33.9295   -20.8140 H6            1 RES     
    1447 H6          37.3080   -34.9830   -22.1921 H6            1 RES     
    1448 H6          37.5095   -32.9025   -23.6388 H6            1 RES     
    1449 H6          35.8781   -33.0347   -22.8980 H6            1 RES     
    1450 H6          37.0806   -31.8849   -22.2060 H6            1 RES     
    1451 C0          58.1186   -28.1710   -25.5160 C0            1 RES     
    1452 C1          57.0436   -28.4788   -24.4505 C1            1 RES     
    1453 C1          57.5507   -28.4826   -23.1903 C1            1 RES     
    1454 S2          56.4312   -28.9037   -22.0191 S2            1 RES     
    1455 C1          55.2103   -29.1440   -23.1778 C1            1 RES     
    1456 C1          55.7014   -28.8935   -24.4638 C1            1 RES     
    1457 C1          58.9380   -28.2301   -23.2573 C1            1 RES     
    1458 C1          59.3130   -28.1338   -24.5615 C1            1 RES     
    1459 C1          60.6908   -28.0278   -24.7086 C1            1 RES     
    1460 C1          61.3226   -28.0126   -23.4537 C1            1 RES     
    1461 S2          60.2046   -28.1453   -22.1825 S2            1 RES     
    1462 H3          55.1018   -29.0643   -25.3376 H3            1 RES     
    1463 H3          61.2043   -27.9705   -25.6609 H3            1 RES     
    1464 N4          64.7466   -26.9613   -22.3486 N4            1 RES     
    1465 C1          63.4060   -26.9237   -22.6046 C1            1 RES     
    1466 C1          62.7613   -28.0143   -23.2134 C1            1 RES     
    1467 C1          63.5253   -29.1402   -23.5256 C1            1 RES     
    1468 N4          63.0172   -30.2796   -24.0614 N4            1 RES     
    1469 S2          64.3501   -31.2535   -24.1428 S2            1 RES     
    1470 N4          65.5660   -30.3109   -23.5335 N4            1 RES     
    1471 C1          64.9118   -29.1621   -23.2317 C1            1 RES     
    1472 C1          65.5116   -28.0474   -22.6516 C1            1 RES     
    1473 H5          62.8383   -26.0355   -22.3411 H5            1 RES     
    1474 C0          58.0664   -26.8120   -26.2992 C0            1 RES     
    1475 C0          58.3710   -25.3441   -25.8151 C0            1 RES     
    1476 C0          58.0113   -24.4277   -27.0370 C0            1 RES     
    1477 C0          58.2797   -22.9260   -26.8789 C0            1 RES     
    1478 C0          57.8404   -22.1175   -28.1224 C0            1 RES     
    1479 C0          58.5757   -22.4548   -29.4383 C0            1 RES     
    1480 C0          60.1095   -22.3520   -29.3681 C0            1 RES     
    1481 C0          60.6015   -20.9591   -28.9362 C0            1 RES     
    1482 C0          62.1296   -20.8753   -28.8128 C0            1 RES     
    1483 C0          62.8546   -21.0132   -30.1623 C0            1 RES     
    1484 C0          64.3739   -20.8134   -30.0430 C0            1 RES     
    1485 C0          65.0618   -21.9024   -29.2188 C0            1 RES     
    1486 C0          57.7380   -24.8225   -24.4838 C0            1 RES     
    1487 C0          56.1889   -24.6698   -24.3847 C0            1 RES     
    1488 C0          55.6763   -25.5479   -23.2392 C0            1 RES     
    1489 C0          54.1762   -25.8163   -23.1579 C0            1 RES     
    1490 C0          53.3227   -24.7118   -22.5520 C0            1 RES     
    1491 C0          51.8621   -25.2087   -22.5236 C0            1 RES     
    1492 C0          50.8993   -24.2905   -21.7672 C0            1 RES     
    1493 C0          51.1765   -24.2719   -20.2625 C0            1 RES     
    1494 H6          57.0949   -26.7475   -26.7183 H6            1 RES     
    1495 H6          58.7825   -26.9541   -27.1399 H6            1 RES     
    1496 H6          59.4692   -25.2879   -25.6436 H6            1 RES     
    1497 H6          56.9318   -24.5439   -27.2769 H6            1 RES     
    1498 H6          58.5903   -24.7897   -27.9135 H6            1 RES     
    1499 H6          59.3523   -22.7517   -26.6576 H6            1 RES     
    1500 H6          57.6811   -22.5355   -26.0314 H6            1 RES     
    1501 H6          57.9804   -21.0395   -27.9000 H6            1 RES     
    1502 H6          56.7505   -22.2653   -28.2899 H6            1 RES     
    1503 H6          58.2027   -21.7651   -30.2280 H6            1 RES     
    1504 H6          58.3122   -23.4847   -29.7611 H6            1 RES     
    1505 H6          60.4956   -23.1156   -28.6604 H6            1 RES     
    1506 H6          60.5027   -22.5960   -30.3769 H6            1 RES     
    1507 H6          60.1974   -20.7333   -27.9284 H6            1 RES     
    1508 H6          60.2327   -20.1834   -29.6426 H6            1 RES     
    1509 H6          62.3774   -19.8784   -28.3874 H6            1 RES     
    1510 H6          62.4697   -21.6533   -28.0974 H6            1 RES     
    1511 H6          62.6593   -22.0055   -30.6191 H6            1 RES     
    1512 H6          62.4631   -20.2289   -30.8462 H6            1 RES     
    1513 H6          64.5895   -19.8171   -29.5989 H6            1 RES     
    1514 H6          64.8065   -20.8361   -31.0664 H6            1 RES     
    1515 H6          64.7100   -21.8970   -28.1675 H6            1 RES     
    1516 H6          64.8696   -22.9005   -29.6668 H6            1 RES     
    1517 H6          66.1570   -21.7212   -29.2120 H6            1 RES     
    1518 H6          58.1715   -23.8210   -24.2758 H6            1 RES     
    1519 H6          58.1367   -25.4345   -23.6466 H6            1 RES     
    1520 H6          55.9092   -23.6149   -24.1657 H6            1 RES     
    1521 H6          55.7151   -24.9608   -25.3442 H6            1 RES     
    1522 H6          56.0891   -25.2406   -22.2553 H6            1 RES     
    1523 H6          56.0801   -26.5109   -23.4693 H6            1 RES     
    1524 H6          53.8094   -26.0981   -24.1479 H6            1 RES     
    1525 H6          54.0525   -26.7047   -22.4976 H6            1 RES     
    1526 H6          53.7000   -24.5327   -21.5229 H6            1 RES     
    1527 H6          53.3986   -23.7718   -23.1384 H6            1 RES     
    1528 H6          51.5122   -25.3071   -23.5763 H6            1 RES     
    1529 H6          51.8030   -26.2174   -22.0550 H6            1 RES     
    1530 H6          49.8706   -24.6890   -21.9096 H6            1 RES     
    1531 H6          50.9389   -23.2626   -22.1850 H6            1 RES     
    1532 H6          52.1749   -23.8474   -20.0383 H6            1 RES     
    1533 H6          50.4128   -23.6500   -19.7529 H6            1 RES     
    1534 H6          51.1199   -25.3042   -19.8504 H6            1 RES     
    1535 C0          58.1070   -29.4187   -26.4849 C0            1 RES     
    1536 C0          57.6289   -29.4096   -28.0073 C0            1 RES     
    1537 C0          57.2755   -30.8917   -28.3687 C0            1 RES     
    1538 C0          57.0425   -31.1750   -29.8665 C0            1 RES     
    1539 C0          56.6748   -32.6376   -30.1727 C0            1 RES     
    1540 C0          57.7216   -33.6896   -29.7648 C0            1 RES     
    1541 C0          59.1376   -33.4503   -30.3147 C0            1 RES     
    1542 C0          59.1919   -33.3661   -31.8503 C0            1 RES     
    1543 C0          60.6128   -33.1216   -32.3836 C0            1 RES     
    1544 C0          61.5604   -34.3074   -32.1286 C0            1 RES     
    1545 C0          62.9443   -34.1184   -32.7692 C0            1 RES     
    1546 C0          63.7392   -32.9639   -32.1589 C0            1 RES     
    1547 C0          56.5752   -28.4009   -28.6312 C0            1 RES     
    1548 C0          55.0719   -28.4314   -28.2348 C0            1 RES     
    1549 C0          54.6801   -27.2489   -27.3306 C0            1 RES     
    1550 C0          53.2445   -27.2186   -26.8327 C0            1 RES     
    1551 C0          52.1688   -26.8605   -27.8484 C0            1 RES     
    1552 C0          50.8423   -26.7257   -27.0730 C0            1 RES     
    1553 C0          49.6671   -26.2165   -27.9095 C0            1 RES     
    1554 C0          49.8517   -24.7623   -28.3457 C0            1 RES     
    1555 H6          57.5971   -30.2577   -25.9567 H6            1 RES     
    1556 H6          59.1481   -29.8112   -26.5291 H6            1 RES     
    1557 H6          58.5529   -29.1434   -28.5708 H6            1 RES     
    1558 H6          56.3665   -31.1957   -27.8059 H6            1 RES     
    1559 H6          58.1173   -31.5333   -28.0301 H6            1 RES     
    1560 H6          57.9446   -30.8774   -30.4411 H6            1 RES     
    1561 H6          56.1798   -30.5896   -30.2392 H6            1 RES     
    1562 H6          56.4907   -32.7180   -31.2654 H6            1 RES     
    1563 H6          55.7165   -32.8875   -29.6666 H6            1 RES     
    1564 H6          57.3588   -34.6824   -30.1103 H6            1 RES     
    1565 H6          57.7852   -33.7328   -28.6565 H6            1 RES     
    1566 H6          59.5507   -32.5140   -29.8824 H6            1 RES     
    1567 H6          59.7640   -34.2932   -29.9582 H6            1 RES     
    1568 H6          58.5727   -32.5077   -32.1849 H6            1 RES     
    1569 H6          58.7753   -34.2924   -32.3020 H6            1 RES     
    1570 H6          60.5379   -32.9681   -33.4822 H6            1 RES     
    1571 H6          61.0109   -32.1899   -31.9286 H6            1 RES     
    1572 H6          61.6946   -34.4832   -31.0414 H6            1 RES     
    1573 H6          61.1036   -35.2168   -32.5765 H6            1 RES     
    1574 H6          62.8341   -33.9586   -33.8638 H6            1 RES     
    1575 H6          63.5255   -35.0526   -32.6129 H6            1 RES     
    1576 H6          63.2344   -31.9917   -32.3295 H6            1 RES     
    1577 H6          63.8726   -33.1243   -31.0678 H6            1 RES     
    1578 H6          64.7410   -32.9169   -32.6352 H6            1 RES     
    1579 H6          56.5948   -28.6133   -29.7159 H6            1 RES     
    1580 H6          56.9493   -27.3617   -28.6925 H6            1 RES     
    1581 H6          54.4749   -28.2785   -29.1608 H6            1 RES     
    1582 H6          54.7914   -29.4198   -27.8180 H6            1 RES     
    1583 H6          54.9281   -26.2844   -27.8293 H6            1 RES     
    1584 H6          55.2387   -27.2973   -26.4025 H6            1 RES     
    1585 H6          53.0052   -28.1704   -26.3105 H6            1 RES     
    1586 H6          53.2166   -26.3903   -26.1057 H6            1 RES     
    1587 H6          52.4500   -25.8915   -28.3123 H6            1 RES     
    1588 H6          52.0888   -27.6355   -28.6390 H6            1 RES     
    1589 H6          50.5820   -27.7249   -26.6596 H6            1 RES     
    1590 H6          50.9669   -26.0283   -26.2127 H6            1 RES     
    1591 H6          48.7608   -26.2588   -27.2663 H6            1 RES     
    1592 H6          49.5103   -26.8738   -28.7876 H6            1 RES     
    1593 H6          50.7187   -24.6502   -29.0265 H6            1 RES     
    1594 H6          48.9424   -24.4229   -28.8829 H6            1 RES     
    1595 H6          49.9991   -24.1095   -27.4574 H6            1 RES     
    1596 C0          70.9018   -27.4642   -23.0791 C0            1 RES     
    1597 C1          69.4559   -27.7048   -22.5922 C1            1 RES     
    1598 C1          69.4133   -28.3295   -21.3868 C1            1 RES     
    1599 S2          67.8610   -28.6881   -20.8727 S2            1 RES     
    1600 C1          67.1725   -28.0478   -22.2894 C1            1 RES     
    1601 C1          68.1710   -27.5666   -23.1433 C1            1 RES     
    1602 C1          70.7340   -28.5964   -20.9656 C1            1 RES     
    1603 C1          71.6018   -28.1997   -21.9354 C1            1 RES     
    1604 C1          72.9130   -28.5621   -21.6514 C1            1 RES     
    1605 C1          72.9880   -29.2143   -20.4091 C1            1 RES     
    1606 S2          71.4617   -29.3589   -19.6789 S2            1 RES     
    1607 H3          67.9408   -27.1923   -24.1227 H3            1 RES     
    1608 H3          73.7578   -28.3714   -22.3024 H3            1 RES     
    1609 N4          75.8440   -29.9426   -18.0932 N4            1 RES     
    1610 C1          74.7560   -29.3304   -18.6461 C1            1 RES     
    1611 C1          74.1777   -29.8259   -19.8276 C1            1 RES     
    1612 C1          74.7328   -30.9705   -20.4026 C1            1 RES     
    1613 N4          74.2370   -31.5833   -21.5081 N4            1 RES     
    1614 S2          75.2431   -32.8848   -21.6684 S2            1 RES     
    1615 N4          76.2983   -32.7266   -20.4036 N4            1 RES     
    1616 C1          75.8504   -31.5990   -19.7983 C1            1 RES     
    1617 C1          76.4051   -31.0564   -18.6422 C1            1 RES     
    1618 H5          74.3426   -28.4463   -18.1687 H5            1 RES     
    1619 C0          71.4637   -26.0004   -23.1455 C0            1 RES     
    1620 C0          71.8708   -25.0113   -21.9889 C0            1 RES     
    1621 C0          72.2322   -23.6654   -22.7102 C0            1 RES     
    1622 C0          72.7425   -22.5211   -21.8256 C0            1 RES     
    1623 C0          73.0174   -21.2319   -22.6350 C0            1 RES     
    1624 C0          74.1154   -21.3376   -23.7162 C0            1 RES     
    1625 C0          75.4799   -21.8350   -23.2075 C0            1 RES     
    1626 C0          76.0582   -20.9613   -22.0801 C0            1 RES     
    1627 C0          77.3926   -21.4915   -21.5362 C0            1 RES     
    1628 C0          78.5387   -21.4096   -22.5585 C0            1 RES     
    1629 C0          79.8924   -21.8349   -21.9679 C0            1 RES     
    1630 C0          79.9419   -23.3125   -21.5777 C0            1 RES     
    1631 C0          70.8989   -24.7891   -20.7843 C0            1 RES     
    1632 C0          69.5110   -24.1240   -21.0372 C0            1 RES     
    1633 C0          68.4093   -25.0908   -20.5925 C0            1 RES     
    1634 C0          66.9788   -24.8011   -21.0382 C0            1 RES     
    1635 C0          66.2239   -23.7438   -20.2460 C0            1 RES     
    1636 C0          64.7986   -23.6478   -20.8297 C0            1 RES     
    1637 C0          63.8458   -22.7634   -20.0223 C0            1 RES     
    1638 C0          63.5070   -23.3691   -18.6586 C0            1 RES     
    1639 H6          70.7751   -25.4438   -23.7284 H6            1 RES     
    1640 H6          72.4013   -26.0948   -23.7385 H6            1 RES     
    1641 H6          72.7964   -25.4244   -21.5292 H6            1 RES     
    1642 H6          71.3368   -23.2873   -23.2504 H6            1 RES     
    1643 H6          73.0128   -23.8872   -23.4691 H6            1 RES     
    1644 H6          73.6518   -22.8400   -21.2767 H6            1 RES     
    1645 H6          71.9621   -22.2575   -21.0836 H6            1 RES     
    1646 H6          73.2939   -20.4288   -21.9209 H6            1 RES     
    1647 H6          72.0774   -20.9023   -23.1305 H6            1 RES     
    1648 H6          74.2451   -20.3321   -24.1752 H6            1 RES     
    1649 H6          73.7787   -22.0191   -24.5264 H6            1 RES     
    1650 H6          75.3777   -22.8808   -22.8485 H6            1 RES     
    1651 H6          76.1727   -21.8410   -24.0745 H6            1 RES     
    1652 H6          75.3520   -20.9667   -21.2250 H6            1 RES     
    1653 H6          76.1780   -19.9119   -22.4280 H6            1 RES     
    1654 H6          77.6677   -20.8682   -20.6575 H6            1 RES     
    1655 H6          77.2430   -22.5354   -21.1891 H6            1 RES     
    1656 H6          78.3237   -22.0373   -23.4481 H6            1 RES     
    1657 H6          78.6313   -20.3521   -22.8894 H6            1 RES     
    1658 H6          80.1314   -21.2067   -21.0821 H6            1 RES     
    1659 H6          80.6752   -21.6591   -22.7370 H6            1 RES     
    1660 H6          79.2165   -23.5425   -20.7714 H6            1 RES     
    1661 H6          79.7249   -23.9494   -22.4614 H6            1 RES     
    1662 H6          80.9571   -23.5596   -21.2025 H6            1 RES     
    1663 H6          71.4262   -24.1546   -20.0401 H6            1 RES     
    1664 H6          70.7908   -25.7533   -20.2429 H6            1 RES     
    1665 H6          69.4090   -23.1859   -20.4466 H6            1 RES     
    1666 H6          69.4000   -23.8700   -22.1109 H6            1 RES     
    1667 H6          68.4598   -25.3167   -19.5065 H6            1 RES     
    1668 H6          68.6468   -25.9910   -21.1184 H6            1 RES     
    1669 H6          66.9774   -24.5679   -22.1057 H6            1 RES     
    1670 H6          66.4124   -25.7515   -20.9097 H6            1 RES     
    1671 H6          66.1965   -24.0831   -19.1888 H6            1 RES     
    1672 H6          66.7299   -22.7568   -20.3006 H6            1 RES     
    1673 H6          64.8776   -23.2406   -21.8633 H6            1 RES     
    1674 H6          64.3385   -24.6595   -20.9022 H6            1 RES     
    1675 H6          62.8951   -22.6816   -20.5937 H6            1 RES     
    1676 H6          64.2728   -21.7454   -19.9029 H6            1 RES     
    1677 H6          64.4044   -23.4457   -18.0135 H6            1 RES     
    1678 H6          62.7631   -22.7283   -18.1432 H6            1 RES     
    1679 H6          63.0660   -24.3826   -18.7892 H6            1 RES     
    1680 C0          70.9952   -28.2028   -24.4725 C0            1 RES     
    1681 C0          71.1678   -27.4934   -25.8913 C0            1 RES     
    1682 C0          70.6657   -28.5193   -26.9627 C0            1 RES     
    1683 C0          70.9827   -28.1608   -28.4286 C0            1 RES     
    1684 C0          70.4506   -29.1837   -29.4478 C0            1 RES     
    1685 C0          70.9919   -30.6170   -29.3014 C0            1 RES     
    1686 C0          72.5248   -30.7388   -29.2904 C0            1 RES     
    1687 C0          73.1944   -30.1551   -30.5470 C0            1 RES     
    1688 C0          74.7263   -30.2801   -30.5181 C0            1 RES     
    1689 C0          75.2095   -31.7397   -30.5886 C0            1 RES     
    1690 C0          76.7382   -31.8619   -30.6860 C0            1 RES     
    1691 C0          77.4641   -31.3669   -29.4350 C0            1 RES     
    1692 C0          70.6954   -26.0203   -26.2432 C0            1 RES     
    1693 C0          69.1911   -25.6329   -26.3135 C0            1 RES     
    1694 C0          68.7486   -24.7805   -25.1107 C0            1 RES     
    1695 C0          67.2783   -24.4006   -25.0492 C0            1 RES     
    1696 C0          66.7958   -23.3459   -26.0352 C0            1 RES     
    1697 C0          65.3373   -23.0116   -25.6612 C0            1 RES     
    1698 C0          64.7292   -21.8520   -26.4522 C0            1 RES     
    1699 C0          65.3873   -20.5126   -26.1177 C0            1 RES     
    1700 H6          70.1469   -28.9234   -24.5356 H6            1 RES     
    1701 H6          71.8550   -28.9080   -24.4146 H6            1 RES     
    1702 H6          72.2727   -27.4071   -26.0089 H6            1 RES     
    1703 H6          69.5661   -28.6435   -26.8590 H6            1 RES     
    1704 H6          71.1423   -29.4990   -26.7435 H6            1 RES     
    1705 H6          72.0794   -28.0355   -28.5471 H6            1 RES     
    1706 H6          70.4884   -27.2102   -28.7078 H6            1 RES     
    1707 H6          70.6971   -28.8079   -30.4638 H6            1 RES     
    1708 H6          69.3410   -29.2234   -29.3809 H6            1 RES     
    1709 H6          70.5836   -31.2222   -30.1402 H6            1 RES     
    1710 H6          70.6042   -31.0607   -28.3596 H6            1 RES     
    1711 H6          72.9314   -30.2309   -28.3899 H6            1 RES     
    1712 H6          72.7573   -31.8197   -29.2035 H6            1 RES     
    1713 H6          72.9632   -29.0710   -30.6062 H6            1 RES     
    1714 H6          72.7945   -30.6464   -31.4602 H6            1 RES     
    1715 H6          75.1245   -29.7402   -31.4047 H6            1 RES     
    1716 H6          75.1096   -29.7784   -29.6042 H6            1 RES     
    1717 H6          74.8638   -32.3167   -29.7062 H6            1 RES     
    1718 H6          74.7759   -32.2031   -31.5016 H6            1 RES     
    1719 H6          77.1047   -31.3050   -31.5756 H6            1 RES     
    1720 H6          76.9887   -32.9360   -30.8230 H6            1 RES     
    1721 H6          77.2958   -30.2831   -29.2730 H6            1 RES     
    1722 H6          77.1196   -31.9316   -28.5425 H6            1 RES     
    1723 H6          78.5558   -31.5286   -29.5568 H6            1 RES     
    1724 H6          71.0914   -25.8359   -27.2587 H6            1 RES     
    1725 H6          71.2837   -25.2385   -25.7272 H6            1 RES     
    1726 H6          69.0554   -24.9620   -27.1903 H6            1 RES     
    1727 H6          68.5581   -26.5281   -26.4791 H6            1 RES     
    1728 H6          69.3792   -23.8658   -25.0343 H6            1 RES     
    1729 H6          68.8723   -25.3479   -24.1950 H6            1 RES     
    1730 H6          66.6489   -25.3157   -25.0975 H6            1 RES     
    1731 H6          67.1516   -23.9262   -24.0621 H6            1 RES     
    1732 H6          67.4436   -22.4515   -25.9184 H6            1 RES     
    1733 H6          66.8630   -23.7128   -27.0806 H6            1 RES     
    1734 H6          64.7213   -23.9224   -25.8292 H6            1 RES     
    1735 H6          65.2654   -22.7523   -24.5798 H6            1 RES     
    1736 H6          63.6583   -21.7789   -26.1609 H6            1 RES     
    1737 H6          64.7881   -22.0588   -27.5392 H6            1 RES     
    1738 H6          66.4533   -20.4980   -26.4198 H6            1 RES     
    1739 H6          64.8615   -19.7005   -26.6606 H6            1 RES     
    1740 H6          65.3150   -20.3098   -25.0265 H6            1 RES     
    1741 C0          81.5142   -32.3795   -17.3286 C0            1 RES     
    1742 C1          79.9790   -32.2259   -17.4018 C1            1 RES     
    1743 C1          79.3295   -33.1668   -16.6681 C1            1 RES     
    1744 S2          77.6626   -33.0856   -16.7995 S2            1 RES     
    1745 C1          77.7457   -31.7904   -17.8979 C1            1 RES     
    1746 C1          79.0788   -31.4453   -18.1460 C1            1 RES     
    1747 C1          80.2841   -34.0268   -16.0835 C1            1 RES     
    1748 C1          81.5273   -33.6668   -16.5029 C1            1 RES     
    1749 C1          82.5061   -34.5583   -16.0807 C1            1 RES     
    1750 C1          81.9411   -35.5787   -15.2973 C1            1 RES     
    1751 S2          80.2600   -35.3969   -15.1408 S2            1 RES     
    1752 H3          79.3404   -30.6990   -18.8719 H3            1 RES     
    1753 H3          83.5579   -34.4780   -16.3278 H3            1 RES     
    1754 N4          83.4206   -38.0549   -12.9036 N4            1 RES     
    1755 C1          82.8019   -36.9364   -13.3834 C1            1 RES     
    1756 C1          82.6395   -36.7440   -14.7663 C1            1 RES     
    1757 C1          83.1071   -37.7373   -15.6286 C1            1 RES     
    1758 N4          82.9625   -37.7028   -16.9782 N4            1 RES     
    1759 S2          83.6352   -39.1403   -17.4397 S2            1 RES     
    1760 N4          84.1159   -39.8276   -16.0132 N4            1 RES     
    1761 C1          83.7284   -38.8986   -15.1046 C1            1 RES     
    1762 C1          83.8902   -39.0328   -13.7282 C1            1 RES     
    1763 H5          82.4414   -36.1862   -12.6848 H5            1 RES     
    1764 C0          82.3661   -31.2978   -16.5756 C0            1 RES     
    1765 C0          82.4948   -30.9926   -15.0354 C0            1 RES     
    1766 C0          83.3987   -29.7129   -14.9465 C0            1 RES     
    1767 C0          83.7607   -29.2172   -13.5410 C0            1 RES     
    1768 C0          84.6093   -27.9243   -13.5754 C0            1 RES     
    1769 C0          85.9903   -28.0440   -14.2568 C0            1 RES     
    1770 C0          86.8986   -29.1495   -13.6902 C0            1 RES     
    1771 C0          87.1661   -28.9965   -12.1824 C0            1 RES     
    1772 C0          88.0264   -30.1314   -11.6085 C0            1 RES     
    1773 C0          89.4689   -30.1270   -12.1422 C0            1 RES     
    1774 C0          90.3514   -31.1946   -11.4760 C0            1 RES     
    1775 C0          89.9151   -32.6241   -11.7989 C0            1 RES     
    1776 C0          81.2037   -30.8610   -14.1631 C0            1 RES     
    1777 C0          80.2113   -29.6905   -14.4419 C0            1 RES     
    1778 C0          78.8391   -30.2758   -14.7893 C0            1 RES     
    1779 C0          77.8012   -29.3474   -15.4134 C0            1 RES     
    1780 C0          77.0506   -28.4314   -14.4579 C0            1 RES     
    1781 C0          76.0286   -27.6244   -15.2859 C0            1 RES     
    1782 C0          75.0571   -26.7906   -14.4475 C0            1 RES     
    1783 C0          74.0854   -27.6612   -13.6481 C0            1 RES     
    1784 H6          82.1034   -30.3632   -17.0012 H6            1 RES     
    1785 H6          83.4149   -31.5179   -16.8777 H6            1 RES     
    1786 H6          83.0492   -31.8474   -14.5876 H6            1 RES     
    1787 H6          82.8951   -28.8714   -15.4708 H6            1 RES     
    1788 H6          84.3441   -29.9280   -15.4889 H6            1 RES     
    1789 H6          84.2864   -30.0156   -12.9788 H6            1 RES     
    1790 H6          82.8312   -28.9601   -12.9940 H6            1 RES     
    1791 H6          84.7539   -27.5788   -12.5309 H6            1 RES     
    1792 H6          84.0375   -27.1239   -14.0953 H6            1 RES     
    1793 H6          86.5090   -27.0643   -14.1591 H6            1 RES     
    1794 H6          85.8566   -28.2293   -15.3440 H6            1 RES     
    1795 H6          86.4348   -30.1396   -13.8841 H6            1 RES     
    1796 H6          87.8559   -29.1088   -14.2502 H6            1 RES     
    1797 H6          86.1989   -29.0380   -11.6412 H6            1 RES     
    1798 H6          87.6421   -28.0135   -11.9727 H6            1 RES     
    1799 H6          88.0654   -29.9975   -10.5054 H6            1 RES     
    1800 H6          87.5255   -31.0984   -11.8242 H6            1 RES     
    1801 H6          89.4869   -30.2829   -13.2407 H6            1 RES     
    1802 H6          89.9157   -29.1331   -11.9215 H6            1 RES     
    1803 H6          90.3564   -31.0458   -10.3741 H6            1 RES     
    1804 H6          91.3910   -31.0636   -11.8466 H6            1 RES     
    1805 H6          88.9002   -32.8358   -11.4060 H6            1 RES     
    1806 H6          89.9271   -32.7892   -12.8973 H6            1 RES     
    1807 H6          90.6194   -33.3392   -11.3246 H6            1 RES     
    1808 H6          81.5231   -30.7634   -13.1035 H6            1 RES     
    1809 H6          80.6812   -31.8415   -14.1663 H6            1 RES     
    1810 H6          80.0964   -29.0470   -13.5409 H6            1 RES     
    1811 H6          80.5898   -29.0592   -15.2713 H6            1 RES     
    1812 H6          78.4081   -30.8650   -13.9526 H6            1 RES     
    1813 H6          79.0580   -30.9586   -15.5825 H6            1 RES     
    1814 H6          78.2705   -28.7763   -16.2182 H6            1 RES     
    1815 H6          77.0345   -30.0053   -15.8825 H6            1 RES     
    1816 H6          76.5362   -29.0800   -13.7175 H6            1 RES     
    1817 H6          77.7425   -27.7453   -13.9252 H6            1 RES     
    1818 H6          76.5948   -26.9443   -15.9619 H6            1 RES     
    1819 H6          75.4222   -28.3048   -15.9262 H6            1 RES     
    1820 H6          74.4507   -26.1740   -15.1471 H6            1 RES     
    1821 H6          75.6170   -26.1089   -13.7733 H6            1 RES     
    1822 H6          74.6164   -28.2792   -12.8975 H6            1 RES     
    1823 H6          73.3610   -27.0133   -13.1141 H6            1 RES     
    1824 H6          73.5184   -28.3300   -14.3337 H6            1 RES     
    1825 C0          81.9806   -32.5699   -18.8259 C0            1 RES     
    1826 C0          82.8486   -31.5298   -19.6690 C0            1 RES     
    1827 C0          82.5934   -31.8617   -21.1780 C0            1 RES     
    1828 C0          83.5310   -31.1612   -22.1822 C0            1 RES     
    1829 C0          83.2292   -31.4975   -23.6532 C0            1 RES     
    1830 C0          83.3375   -32.9846   -24.0349 C0            1 RES     
    1831 C0          84.6746   -33.6552   -23.6785 C0            1 RES     
    1832 C0          85.8948   -32.9618   -24.3097 C0            1 RES     
    1833 C0          87.2234   -33.6410   -23.9397 C0            1 RES     
    1834 C0          87.3590   -35.0546   -24.5334 C0            1 RES     
    1835 C0          88.7348   -35.6865   -24.2708 C0            1 RES     
    1836 C0          89.0016   -35.9574   -22.7900 C0            1 RES     
    1837 C0          82.8912   -29.9625   -19.4265 C0            1 RES     
    1838 C0          81.6617   -29.0525   -19.7058 C0            1 RES     
    1839 C0          80.9836   -28.5699   -18.4110 C0            1 RES     
    1840 C0          79.7311   -27.7243   -18.5724 C0            1 RES     
    1841 C0          79.9209   -26.2956   -19.0622 C0            1 RES     
    1842 C0          78.5462   -25.6017   -18.9749 C0            1 RES     
    1843 C0          78.5706   -24.1037   -19.2840 C0            1 RES     
    1844 C0          79.3236   -23.3034   -18.2202 C0            1 RES     
    1845 H6          81.0884   -32.8599   -19.4283 H6            1 RES     
    1846 H6          82.5692   -33.5142   -18.8700 H6            1 RES     
    1847 H6          83.9002   -31.8194   -19.4403 H6            1 RES     
    1848 H6          81.5436   -31.6019   -21.4343 H6            1 RES     
    1849 H6          82.7158   -32.9583   -21.3094 H6            1 RES     
    1850 H6          84.5843   -31.4138   -21.9387 H6            1 RES     
    1851 H6          83.4099   -30.0624   -22.1197 H6            1 RES     
    1852 H6          83.9313   -30.9119   -24.2845 H6            1 RES     
    1853 H6          82.2037   -31.1485   -23.9052 H6            1 RES     
    1854 H6          83.1681   -33.0678   -25.1308 H6            1 RES     
    1855 H6          82.5235   -33.5515   -23.5346 H6            1 RES     
    1856 H6          84.7968   -33.6768   -22.5744 H6            1 RES     
    1857 H6          84.6087   -34.7043   -24.0324 H6            1 RES     
    1858 H6          85.9518   -31.9202   -23.9305 H6            1 RES     
    1859 H6          85.7873   -32.9240   -25.4154 H6            1 RES     
    1860 H6          88.0463   -33.0140   -24.3467 H6            1 RES     
    1861 H6          87.3181   -33.6640   -22.8333 H6            1 RES     
    1862 H6          86.5763   -35.7314   -24.1331 H6            1 RES     
    1863 H6          87.2275   -34.9803   -25.6350 H6            1 RES     
    1864 H6          89.5345   -35.0321   -24.6809 H6            1 RES     
    1865 H6          88.7743   -36.6587   -24.8077 H6            1 RES     
    1866 H6          89.0280   -35.0155   -22.2058 H6            1 RES     
    1867 H6          88.2188   -36.6275   -22.3752 H6            1 RES     
    1868 H6          89.9882   -36.4549   -22.6807 H6            1 RES     
    1869 H6          83.6841   -29.5972   -20.1046 H6            1 RES     
    1870 H6          83.3872   -29.6811   -18.4785 H6            1 RES     
    1871 H6          82.0332   -28.1200   -20.1851 H6            1 RES     
    1872 H6          80.9633   -29.5366   -20.4180 H6            1 RES     
    1873 H6          81.7193   -28.0372   -17.7666 H6            1 RES     
    1874 H6          80.6090   -29.4219   -17.8547 H6            1 RES     
    1875 H6          78.9854   -28.2675   -19.1927 H6            1 RES     
    1876 H6          79.3358   -27.6094   -17.5497 H6            1 RES     
    1877 H6          80.6516   -25.8006   -18.3881 H6            1 RES     
    1878 H6          80.3098   -26.2756   -20.1016 H6            1 RES     
    1879 H6          77.8604   -26.1048   -19.6918 H6            1 RES     
    1880 H6          78.1151   -25.7253   -17.9546 H6            1 RES     
    1881 H6          77.5165   -23.7490   -19.2836 H6            1 RES     
    1882 H6          79.0038   -23.9281   -20.2886 H6            1 RES     
    1883 H6          80.3970   -23.5769   -18.1915 H6            1 RES     
    1884 H6          79.2472   -22.2216   -18.4535 H6            1 RES     
    1885 H6          78.8758   -23.4790   -17.2174 H6            1 RES     
    1886 C0          87.6426   -42.5017   -11.8668 C0            1 RES     
    1887 C1          86.3349   -41.7813   -12.2624 C1            1 RES     
    1888 C1          85.2588   -42.6098   -12.2332 C1            1 RES     
    1889 S2          83.8402   -41.8836   -12.7457 S2            1 RES     
    1890 C1          84.6323   -40.4154   -13.0741 C1            1 RES     
    1891 C1          85.9962   -40.5199   -12.7798 C1            1 RES     
    1892 C1          85.6910   -43.9046   -11.8735 C1            1 RES     
    1893 C1          87.0451   -43.9041   -11.7419 C1            1 RES     
    1894 C1          87.5558   -45.1788   -11.5287 C1            1 RES     
    1895 C1          86.5179   -46.1242   -11.4708 C1            1 RES     
    1896 S2          84.9961   -45.4054   -11.6962 S2            1 RES     
    1897 H3          86.6799   -39.7201   -12.9922 H3            1 RES     
    1898 H3          88.6095   -45.4094   -11.4270 H3            1 RES     
    1899 N4          86.3509   -49.6329   -10.1627 N4            1 RES     
    1900 C1          86.2346   -48.2741   -10.2278 C1            1 RES     
    1901 C1          86.6748   -47.5702   -11.3621 C1            1 RES     
    1902 C1          87.2106   -48.3014   -12.4238 C1            1 RES     
    1903 N4          87.6187   -47.7520   -13.5965 N4            1 RES     
    1904 S2          88.0818   -49.0807   -14.4637 S2            1 RES     
    1905 N4          87.7990   -50.3437   -13.4326 N4            1 RES     
    1906 C1          87.3023   -49.7135   -12.3396 C1            1 RES     
    1907 C1          86.8770   -50.3646   -11.1847 C1            1 RES     
    1908 H5          85.8049   -47.7355    -9.3877 H5            1 RES     
    1909 C0          88.3473   -42.1398   -10.5121 C0            1 RES     
    1910 C0          87.9256   -42.4558    -9.0274 C0            1 RES     
    1911 C0          88.9811   -41.7122    -8.1356 C0            1 RES     
    1912 C0          88.8626   -41.9026    -6.6184 C0            1 RES     
    1913 C0          89.9201   -41.0847    -5.8402 C0            1 RES     
    1914 C0          91.3938   -41.4585    -6.1128 C0            1 RES     
    1915 C0          91.7375   -42.9421    -5.8917 C0            1 RES     
    1916 C0          91.4185   -43.4293    -4.4671 C0            1 RES     
    1917 C0          91.7099   -44.9233    -4.2657 C0            1 RES     
    1918 C0          93.2080   -45.2635    -4.3402 C0            1 RES     
    1919 C0          93.4980   -46.7393    -4.0238 C0            1 RES     
    1920 C0          92.9184   -47.7027    -5.0603 C0            1 RES     
    1921 C0          86.4599   -42.1707    -8.5632 C0            1 RES     
    1922 C0          85.9426   -40.6996    -8.5315 C0            1 RES     
    1923 C0          84.7243   -40.5824    -9.4525 C0            1 RES     
    1924 C0          84.2482   -39.1844    -9.8367 C0            1 RES     
    1925 C0          83.4062   -38.4485    -8.8048 C0            1 RES     
    1926 C0          82.9976   -37.0907    -9.4136 C0            1 RES     
    1927 C0          81.9860   -36.3043    -8.5766 C0            1 RES     
    1928 C0          80.6120   -36.9768    -8.5441 C0            1 RES     
    1929 H6          88.4869   -41.0890   -10.5210 H6            1 RES     
    1930 H6          89.3534   -42.6097   -10.5940 H6            1 RES     
    1931 H6          88.0554   -43.5522    -8.8871 H6            1 RES     
    1932 H6          88.9237   -40.6196    -8.3339 H6            1 RES     
    1933 H6          89.9903   -42.0569    -8.4472 H6            1 RES     
    1934 H6          88.9345   -42.9793    -6.3625 H6            1 RES     
    1935 H6          87.8751   -41.5292    -6.2797 H6            1 RES     
    1936 H6          89.7159   -41.2004    -4.7557 H6            1 RES     
    1937 H6          89.7910   -40.0041    -6.0711 H6            1 RES     
    1938 H6          92.0355   -40.8360    -5.4502 H6            1 RES     
    1939 H6          91.6600   -41.1937    -7.1584 H6            1 RES     
    1940 H6          91.1801   -43.5605    -6.6266 H6            1 RES     
    1941 H6          92.8208   -43.0641    -6.0995 H6            1 RES     
    1942 H6          90.3335   -43.2980    -4.2783 H6            1 RES     
    1943 H6          91.9789   -42.8271    -3.7188 H6            1 RES     
    1944 H6          91.3415   -45.2033    -3.2547 H6            1 RES     
    1945 H6          91.1331   -45.5006    -5.0185 H6            1 RES     
    1946 H6          93.6206   -45.0250    -5.3423 H6            1 RES     
    1947 H6          93.7405   -44.6449    -3.5852 H6            1 RES     
    1948 H6          93.1030   -46.9936    -3.0160 H6            1 RES     
    1949 H6          94.6004   -46.8789    -4.0077 H6            1 RES     
    1950 H6          91.8113   -47.6496    -5.0874 H6            1 RES     
    1951 H6          93.3235   -47.4700    -6.0680 H6            1 RES     
    1952 H6          93.2026   -48.7425    -4.7947 H6            1 RES     
    1953 H6          86.3508   -42.5698    -7.5320 H6            1 RES     
    1954 H6          85.7774   -42.8252    -9.1465 H6            1 RES     
    1955 H6          85.6291   -40.4132    -7.5026 H6            1 RES     
    1956 H6          86.7458   -40.0062    -8.8536 H6            1 RES     
    1957 H6          83.8807   -41.2228    -9.1190 H6            1 RES     
    1958 H6          85.0796   -40.9782   -10.3800 H6            1 RES     
    1959 H6          85.1095   -38.5847   -10.1412 H6            1 RES     
    1960 H6          83.6022   -39.3097   -10.7353 H6            1 RES     
    1961 H6          82.5128   -39.0764    -8.6021 H6            1 RES     
    1962 H6          83.9669   -38.2935    -7.8588 H6            1 RES     
    1963 H6          83.9190   -36.4768    -9.5335 H6            1 RES     
    1964 H6          82.5566   -37.2349   -10.4262 H6            1 RES     
    1965 H6          81.8558   -35.3077    -9.0530 H6            1 RES     
    1966 H6          82.3724   -36.1538    -7.5466 H6            1 RES     
    1967 H6          80.6546   -37.9647    -8.0446 H6            1 RES     
    1968 H6          79.8993   -36.3364    -7.9859 H6            1 RES     
    1969 H6          80.2267   -37.1098    -9.5797 H6            1 RES     
    1970 C0          88.6043   -42.3195   -13.1068 C0            1 RES     
    1971 C0          89.9404   -41.4474   -13.1271 C0            1 RES     
    1972 C0          90.2312   -41.1188   -14.6304 C0            1 RES     
    1973 C0          91.6175   -40.5101   -14.9234 C0            1 RES     
    1974 C0          91.8508   -40.1814   -16.4086 C0            1 RES     
    1975 C0          91.7677   -41.3737   -17.3783 C0            1 RES     
    1976 C0          92.6729   -42.5661   -17.0271 C0            1 RES     
    1977 C0          94.1635   -42.1959   -16.9313 C0            1 RES     
    1978 C0          95.0539   -43.3973   -16.5747 C0            1 RES     
    1979 C0          95.0947   -44.4628   -17.6847 C0            1 RES     
    1980 C0          96.0799   -45.6035   -17.3857 C0            1 RES     
    1981 C0          95.6771   -46.4472   -16.1762 C0            1 RES     
    1982 C0          90.2306   -40.1930   -12.2002 C0            1 RES     
    1983 C0          89.4442   -38.8598   -12.3490 C0            1 RES     
    1984 C0          88.4377   -38.6422   -11.2050 C0            1 RES     
    1985 C0          87.5703   -37.3971   -11.2887 C0            1 RES     
    1986 C0          88.2484   -36.0630   -11.0100 C0            1 RES     
    1987 C0          87.1406   -34.9902   -10.9823 C0            1 RES     
    1988 C0          87.6156   -33.5982   -10.5616 C0            1 RES     
    1989 C0          88.0477   -33.5506    -9.0953 C0            1 RES     
    1990 H6          87.9799   -42.0347   -13.9854 H6            1 RES     
    1991 H6          88.9379   -43.3355   -13.4172 H6            1 RES     
    1992 H6          90.7253   -42.1619   -12.7873 H6            1 RES     
    1993 H6          89.4521   -40.4212   -15.0068 H6            1 RES     
    1994 H6          90.1491   -42.0656   -15.2064 H6            1 RES     
    1995 H6          92.4063   -41.1984   -14.5539 H6            1 RES     
    1996 H6          91.7283   -39.5381   -14.4049 H6            1 RES     
    1997 H6          92.8549   -39.7144   -16.4975 H6            1 RES     
    1998 H6          91.1114   -39.4170   -16.7345 H6            1 RES     
    1999 H6          92.0280   -41.0046   -18.3944 H6            1 RES     
    2000 H6          90.7191   -41.7382   -17.4219 H6            1 RES     
    2001 H6          92.3441   -43.0112   -16.0638 H6            1 RES     
    2002 H6          92.5205   -43.3258   -17.8207 H6            1 RES     
    2003 H6          94.2964   -41.4481   -16.1218 H6            1 RES     
    2004 H6          94.5098   -41.7416   -17.8848 H6            1 RES     
    2005 H6          96.0872   -43.0164   -16.4220 H6            1 RES     
    2006 H6          94.6993   -43.8344   -15.6172 H6            1 RES     
    2007 H6          94.0890   -44.8991   -17.8550 H6            1 RES     
    2008 H6          95.4261   -43.9696   -18.6245 H6            1 RES     
    2009 H6          97.0997   -45.1894   -17.2295 H6            1 RES     
    2010 H6          96.1104   -46.2722   -18.2729 H6            1 RES     
    2011 H6          95.6801   -45.8453   -15.2452 H6            1 RES     
    2012 H6          94.6670   -46.8828   -16.3311 H6            1 RES     
    2013 H6          96.4047   -47.2763   -16.0492 H6            1 RES     
    2014 H6          91.2855   -39.9334   -12.4049 H6            1 RES     
    2015 H6          90.3637   -40.4593   -11.1348 H6            1 RES     
    2016 H6          90.1706   -38.0247   -12.2383 H6            1 RES     
    2017 H6          88.9929   -38.7760   -13.3584 H6            1 RES     
    2018 H6          88.9597   -38.6744   -10.2218 H6            1 RES     
    2019 H6          87.6963   -39.4333   -11.2146 H6            1 RES     
    2020 H6          87.0276   -37.3787   -12.2587 H6            1 RES     
    2021 H6          86.8416   -37.5066   -10.4687 H6            1 RES     
    2022 H6          88.7459   -36.1362   -10.0198 H6            1 RES     
    2023 H6          89.0078   -35.8289   -11.7848 H6            1 RES     
    2024 H6          86.6983   -34.9257   -12.0008 H6            1 RES     
    2025 H6          86.3281   -35.2918   -10.2817 H6            1 RES     
    2026 H6          86.7530   -32.9058   -10.6773 H6            1 RES     
    2027 H6          88.4355   -33.2579   -11.2247 H6            1 RES     
    2028 H6          88.9341   -34.1901    -8.9129 H6            1 RES     
    2029 H6          88.3107   -32.5074    -8.8248 H6            1 RES     
    2030 H6          87.2156   -33.8850    -8.4375 H6            1 RES     
    2031 C0          88.7279   -55.3795   -10.1831 C0            1 RES     
    2032 C1          87.8753   -54.1413   -10.5375 C1            1 RES     
    2033 C1          86.7196   -54.4729   -11.1697 C1            1 RES     
    2034 S2          85.8152   -53.1486   -11.6501 S2            1 RES     
    2035 C1          86.9765   -52.0570   -11.0581 C1            1 RES     
    2036 C1          88.0555   -52.7486   -10.4966 C1            1 RES     
    2037 C1          86.6775   -55.8741   -11.3355 C1            1 RES     
    2038 C1          87.8349   -56.4152   -10.8679 C1            1 RES     
    2039 C1          87.9246   -57.7772   -11.1288 C1            1 RES     
    2040 C1          86.7659   -58.2336   -11.7795 C1            1 RES     
    2041 S2          85.6550   -56.9772   -12.0456 S2            1 RES     
    2042 H3          88.9264   -52.2348   -10.1364 H3            1 RES     
    2043 H3          88.7743   -58.3976   -10.8700 H3            1 RES     
    2044 N4          85.3262   -61.6557   -12.2957 N4            1 RES     
    2045 C1          85.5490   -60.4168   -11.7670 C1            1 RES     
    2046 C1          86.5430   -59.5778   -12.2999 C1            1 RES     
    2047 C1          87.2758   -60.0387   -13.3951 C1            1 RES     
    2048 N4          88.2220   -59.3081   -14.0390 N4            1 RES     
    2049 S2          88.6814   -60.3257   -15.2578 S2            1 RES     
    2050 N4          87.7445   -61.6697   -15.0246 N4            1 RES     
    2051 C1          87.0119   -61.3212   -13.9381 C1            1 RES     
    2052 C1          86.0347   -62.1272   -13.3599 C1            1 RES     
    2053 H5          84.9550   -60.0846   -10.9200 H5            1 RES     
    2054 C0          88.9056   -55.7934    -8.6798 C0            1 RES     
    2055 C0          87.8766   -56.4252    -7.6680 C0            1 RES     
    2056 C0          88.6337   -56.4779    -6.2945 C0            1 RES     
    2057 C0          87.8904   -57.1236    -5.1185 C0            1 RES     
    2058 C0          88.7103   -57.0735    -3.8078 C0            1 RES     
    2059 C0          90.0501   -57.8421    -3.8226 C0            1 RES     
    2060 C0          89.9414   -59.3261    -4.2152 C0            1 RES     
    2061 C0          88.9897   -60.1226    -3.3051 C0            1 RES     
    2062 C0          88.8399   -61.5896    -3.7328 C0            1 RES     
    2063 C0          90.1311   -62.4065    -3.5572 C0            1 RES     
    2064 C0          89.9388   -63.8971    -3.8792 C0            1 RES     
    2065 C0          89.6147   -64.1586    -5.3505 C0            1 RES     
    2066 C0          86.4491   -55.8025    -7.5278 C0            1 RES     
    2067 C0          86.3009   -54.3531    -6.9710 C0            1 RES     
    2068 C0          85.6006   -53.4871    -8.0226 C0            1 RES     
    2069 C0          85.6361   -51.9722    -7.8425 C0            1 RES     
    2070 C0          84.6425   -51.3848    -6.8509 C0            1 RES     
    2071 C0          84.8174   -49.8516    -6.8627 C0            1 RES     
    2072 C0          83.7602   -49.0911    -6.0589 C0            1 RES     
    2073 C0          82.3718   -49.1799    -6.6959 C0            1 RES     
    2074 H6          89.2665   -54.9338    -8.1754 H6            1 RES     
    2075 H6          89.7319   -56.5396    -8.6983 H6            1 RES     
    2076 H6          87.6945   -57.4684    -8.0103 H6            1 RES     
    2077 H6          88.9023   -55.4444    -5.9842 H6            1 RES     
    2078 H6          89.5805   -57.0377    -6.4513 H6            1 RES     
    2079 H6          87.6156   -58.1685    -5.3687 H6            1 RES     
    2080 H6          86.9587   -56.5563    -4.9200 H6            1 RES     
    2081 H6          88.0769   -57.4736    -2.9893 H6            1 RES     
    2082 H6          88.9252   -56.0129    -3.5496 H6            1 RES     
    2083 H6          90.5009   -57.7685    -2.8078 H6            1 RES     
    2084 H6          90.7567   -57.3493    -4.5242 H6            1 RES     
    2085 H6          89.5952   -59.4019    -5.2676 H6            1 RES     
    2086 H6          90.9631   -59.7564    -4.1632 H6            1 RES     
    2087 H6          87.9762   -59.6770    -3.3694 H6            1 RES     
    2088 H6          89.3298   -60.0664    -2.2478 H6            1 RES     
    2089 H6          88.0523   -62.0461    -3.0945 H6            1 RES     
    2090 H6          88.4924   -61.6166    -4.7870 H6            1 RES     
    2091 H6          90.9455   -62.0051    -4.1952 H6            1 RES     
    2092 H6          90.4473   -62.3283    -2.4941 H6            1 RES     
    2093 H6          89.1345   -64.3205    -3.2388 H6            1 RES     
    2094 H6          90.8858   -64.4271    -3.6394 H6            1 RES     
    2095 H6          88.6488   -63.6978    -5.6400 H6            1 RES     
    2096 H6          90.4233   -63.7575    -5.9979 H6            1 RES     
    2097 H6          89.5339   -65.2527    -5.5200 H6            1 RES     
    2098 H6          85.8587   -56.4638    -6.8581 H6            1 RES     
    2099 H6          85.9238   -55.9162    -8.5002 H6            1 RES     
    2100 H6          85.6807   -54.3466    -6.0467 H6            1 RES     
    2101 H6          87.2979   -53.9370    -6.7211 H6            1 RES     
    2102 H6          84.5747   -53.8465    -8.2494 H6            1 RES     
    2103 H6          86.1941   -53.6385    -8.8990 H6            1 RES     
    2104 H6          86.6573   -51.6644    -7.6048 H6            1 RES     
    2105 H6          85.3842   -51.5330    -8.8346 H6            1 RES     
    2106 H6          83.6263   -51.6699    -7.1966 H6            1 RES     
    2107 H6          84.8062   -51.7834    -5.8274 H6            1 RES     
    2108 H6          85.8231   -49.6175    -6.4455 H6            1 RES     
    2109 H6          84.7892   -49.4645    -7.9067 H6            1 RES     
    2110 H6          84.0517   -48.0178    -6.0483 H6            1 RES     
    2111 H6          83.7343   -49.4587    -5.0116 H6            1 RES     
    2112 H6          81.9950   -50.2216    -6.7059 H6            1 RES     
    2113 H6          81.6585   -48.5586    -6.1174 H6            1 RES     
    2114 H6          82.4047   -48.7956    -7.7399 H6            1 RES     
    2115 C0          90.1134   -55.1456   -10.9052 C0            1 RES     
    2116 C0          91.5074   -54.8747   -10.1775 C0            1 RES     
    2117 C0          92.4296   -54.1777   -11.2339 C0            1 RES     
    2118 C0          93.9170   -54.0584   -10.8446 C0            1 RES     
    2119 C0          94.7808   -53.3464   -11.9005 C0            1 RES     
    2120 C0          94.8229   -54.0107   -13.2883 C0            1 RES     
    2121 C0          95.2291   -55.4938   -13.2909 C0            1 RES     
    2122 C0          96.6042   -55.7532   -12.6507 C0            1 RES     
    2123 C0          96.9930   -57.2405   -12.6567 C0            1 RES     
    2124 C0          97.2289   -57.7921   -14.0741 C0            1 RES     
    2125 C0          97.7384   -59.2419   -14.0769 C0            1 RES     
    2126 C0          96.7172   -60.2413   -13.5333 C0            1 RES     
    2127 C0          91.6806   -54.2180    -8.7438 C0            1 RES     
    2128 C0          91.3324   -52.7267    -8.4738 C0            1 RES     
    2129 C0          90.0331   -52.5655    -7.6644 C0            1 RES     
    2130 C0          89.5675   -51.1432    -7.3999 C0            1 RES     
    2131 C0          90.3591   -50.3357    -6.3809 C0            1 RES     
    2132 C0          89.5969   -49.0126    -6.1626 C0            1 RES     
    2133 C0          90.1643   -48.1296    -5.0496 C0            1 RES     
    2134 C0          89.9853   -48.7538    -3.6649 C0            1 RES     
    2135 H6          89.9638   -54.3671   -11.6892 H6            1 RES     
    2136 H6          90.3078   -56.0382   -11.5420 H6            1 RES     
    2137 H6          91.9164   -55.8970   -10.0052 H6            1 RES     
    2138 H6          92.0363   -53.1595   -11.4435 H6            1 RES     
    2139 H6          92.3725   -54.7663   -12.1747 H6            1 RES     
    2140 H6          94.3237   -55.0697   -10.6340 H6            1 RES     
    2141 H6          94.0278   -53.4386    -9.9337 H6            1 RES     
    2142 H6          95.8156   -53.2801   -11.5016 H6            1 RES     
    2143 H6          94.4180   -52.3026   -12.0265 H6            1 RES     
    2144 H6          95.5358   -53.4359   -13.9191 H6            1 RES     
    2145 H6          93.8233   -53.9263   -13.7654 H6            1 RES     
    2146 H6          94.4589   -56.0909   -12.7574 H6            1 RES     
    2147 H6          95.2361   -55.8198   -14.3510 H6            1 RES     
    2148 H6          96.5709   -55.4357   -11.5876 H6            1 RES     
    2149 H6          97.3881   -55.1579   -13.1670 H6            1 RES     
    2150 H6          97.9399   -57.3428   -12.0831 H6            1 RES     
    2151 H6          96.2039   -57.8193   -12.1313 H6            1 RES     
    2152 H6          96.3012   -57.7417   -14.6805 H6            1 RES     
    2153 H6          98.0028   -57.1625   -14.5651 H6            1 RES     
    2154 H6          98.6792   -59.3117   -13.4888 H6            1 RES     
    2155 H6          97.9656   -59.5239   -15.1276 H6            1 RES     
    2156 H6          96.4880   -60.0443   -12.4667 H6            1 RES     
    2157 H6          95.7798   -60.1939   -14.1275 H6            1 RES     
    2158 H6          97.1333   -61.2679   -13.6093 H6            1 RES     
    2159 H6          92.7601   -54.3094    -8.5241 H6            1 RES     
    2160 H6          91.3224   -54.8652    -7.9213 H6            1 RES     
    2161 H6          92.1224   -52.3097    -7.8111 H6            1 RES     
    2162 H6          91.3441   -52.1400    -9.4146 H6            1 RES     
    2163 H6          90.1062   -53.1245    -6.7039 H6            1 RES     
    2164 H6          89.1997   -52.9740    -8.2250 H6            1 RES     
    2165 H6          89.4677   -50.5931    -8.3608 H6            1 RES     
    2166 H6          88.5709   -51.2544    -6.9417 H6            1 RES     
    2167 H6          90.3984   -50.9235    -5.4395 H6            1 RES     
    2168 H6          91.3929   -50.1437    -6.7362 H6            1 RES     
    2169 H6          89.6160   -48.4426    -7.1175 H6            1 RES     
    2170 H6          88.5299   -49.2177    -5.9150 H6            1 RES     
    2171 H6          89.5930   -47.1754    -5.0613 H6            1 RES     
    2172 H6          91.2318   -47.9067    -5.2458 H6            1 RES     
    2173 H6          90.5633   -49.6939    -3.5662 H6            1 RES     
    2174 H6          90.3450   -48.0425    -2.8934 H6            1 RES     
    2175 H6          88.9102   -48.9652    -3.4738 H6            1 RES     
    2176 C0          86.1830   -67.4837   -14.2894 C0            1 RES     
    2177 C1          85.8352   -65.9792   -14.2550 C1            1 RES     
    2178 C1          84.9781   -65.6236   -15.2470 C1            1 RES     
    2179 S2          84.6527   -63.9822   -15.2946 S2            1 RES     
    2180 C1          85.6990   -63.6694   -13.9915 C1            1 RES     
    2181 C1          86.2886   -64.8562   -13.5428 C1            1 RES     
    2182 C1          84.6951   -66.7613   -16.0333 C1            1 RES     
    2183 C1          85.4250   -67.8144   -15.5759 C1            1 RES     
    2184 C1          85.3058   -68.9336   -16.3910 C1            1 RES     
    2185 C1          84.4255   -68.6784   -17.4560 C1            1 RES     
    2186 S2          83.8166   -67.0941   -17.4059 S2            1 RES     
    2187 H3          87.0386   -64.8560   -12.7748 H3            1 RES     
    2188 H3          85.8253   -69.8703   -16.2281 H3            1 RES     
    2189 N4          82.5846   -70.9287   -19.8220 N4            1 RES     
    2190 C1          82.8506   -70.1228   -18.7524 C1            1 RES     
    2191 C1          84.1329   -69.5780   -18.5663 C1            1 RES     
    2192 C1          85.1148   -69.8659   -19.5160 C1            1 RES     
    2193 N4          86.3739   -69.3589   -19.4861 N4            1 RES     
    2194 S2          87.0368   -69.9848   -20.8647 S2            1 RES     
    2195 N4          85.8112   -70.8832   -21.5198 N4            1 RES     
    2196 C1          84.8080   -70.6894   -20.6283 C1            1 RES     
    2197 C1          83.5303   -71.2276   -20.7564 C1            1 RES     
    2198 H5          82.0616   -69.9112   -18.0360 H5            1 RES     
    2199 C0          85.6601   -68.4261   -13.1487 C0            1 RES     
    2200 C0          84.2045   -68.9448   -12.8421 C0            1 RES     
    2201 C0          84.3297   -69.7425   -11.4966 C0            1 RES     
    2202 C0          83.0617   -70.4346   -10.9814 C0            1 RES     
    2203 C0          83.2905   -71.1449    -9.6265 C0            1 RES     
    2204 C0          84.3221   -72.2946    -9.6353 C0            1 RES     
    2205 C0          84.0503   -73.4009   -10.6698 C0            1 RES     
    2206 C0          82.6671   -74.0550   -10.5041 C0            1 RES     
    2207 C0          82.3762   -75.1195   -11.5717 C0            1 RES     
    2208 C0          83.2790   -76.3590   -11.4529 C0            1 RES     
    2209 C0          82.9034   -77.4648   -12.4521 C0            1 RES     
    2210 C0          83.1334   -77.0633   -13.9095 C0            1 RES     
    2211 C0          83.0131   -67.9323   -12.8154 C0            1 RES     
    2212 C0          82.9834   -66.8185   -11.7240 C0            1 RES     
    2213 C0          82.9627   -65.4503   -12.4122 C0            1 RES     
    2214 C0          83.2594   -64.2168   -11.5640 C0            1 RES     
    2215 C0          82.1135   -63.6883   -10.7137 C0            1 RES     
    2216 C0          82.6139   -62.4239    -9.9843 C0            1 RES     
    2217 C0          81.5232   -61.6575    -9.2325 C0            1 RES     
    2218 C0          80.5141   -61.0053   -10.1799 C0            1 RES     
    2219 H6          85.9748   -67.9901   -12.2351 H6            1 RES     
    2220 H6          86.2397   -69.3670   -13.2852 H6            1 RES     
    2221 H6          83.9451   -69.6608   -13.6536 H6            1 RES     
    2222 H6          84.6768   -69.0555   -10.6941 H6            1 RES     
    2223 H6          85.1125   -70.5188   -11.6351 H6            1 RES     
    2224 H6          82.6831   -71.1500   -11.7395 H6            1 RES     
    2225 H6          82.2778   -69.6719   -10.7999 H6            1 RES     
    2226 H6          82.3152   -71.5415    -9.2760 H6            1 RES     
    2227 H6          83.6159   -70.3967    -8.8702 H6            1 RES     
    2228 H6          84.3426   -72.7470    -8.6188 H6            1 RES     
    2229 H6          85.3373   -71.8852    -9.8250 H6            1 RES     
    2230 H6          84.1374   -72.9758   -11.6920 H6            1 RES     
    2231 H6          84.8466   -74.1650   -10.5522 H6            1 RES     
    2232 H6          81.8863   -73.2765   -10.6232 H6            1 RES     
    2233 H6          82.5683   -74.4967    -9.4883 H6            1 RES     
    2234 H6          81.3214   -75.4460   -11.4408 H6            1 RES     
    2235 H6          82.4736   -74.6511   -12.5736 H6            1 RES     
    2236 H6          84.3453   -76.0900   -11.6014 H6            1 RES     
    2237 H6          83.1614   -76.7748   -10.4284 H6            1 RES     
    2238 H6          81.8403   -77.7573   -12.3089 H6            1 RES     
    2239 H6          83.5373   -78.3525   -12.2390 H6            1 RES     
    2240 H6          82.4869   -76.2112   -14.2012 H6            1 RES     
    2241 H6          84.1982   -76.7892   -14.0677 H6            1 RES     
    2242 H6          82.8854   -77.9202   -14.5702 H6            1 RES     
    2243 H6          82.0768   -68.5189   -12.6987 H6            1 RES     
    2244 H6          82.9005   -67.5018   -13.8335 H6            1 RES     
    2245 H6          82.0685   -66.9052   -11.0959 H6            1 RES     
    2246 H6          83.8676   -66.9107   -11.0611 H6            1 RES     
    2247 H6          82.0563   -65.3065   -13.0372 H6            1 RES     
    2248 H6          83.8029   -65.4954   -13.0720 H6            1 RES     
    2249 H6          84.1459   -64.4073   -10.9542 H6            1 RES     
    2250 H6          83.5211   -63.4021   -12.2770 H6            1 RES     
    2251 H6          81.2788   -63.4428   -11.4040 H6            1 RES     
    2252 H6          81.7697   -64.4464    -9.9787 H6            1 RES     
    2253 H6          83.3998   -62.7342    -9.2589 H6            1 RES     
    2254 H6          83.0841   -61.7181   -10.7064 H6            1 RES     
    2255 H6          82.0171   -60.8407    -8.6613 H6            1 RES     
    2256 H6          81.0077   -62.3277    -8.5129 H6            1 RES     
    2257 H6          79.9508   -61.7637   -10.7585 H6            1 RES     
    2258 H6          79.7879   -60.4073    -9.5928 H6            1 RES     
    2259 H6          81.0382   -60.3244   -10.8872 H6            1 RES     
    2260 C0          87.7550   -67.5396   -14.4356 C0            1 RES     
    2261 C0          88.7740   -68.0679   -13.3271 C0            1 RES     
    2262 C0          90.1662   -67.4383   -13.6702 C0            1 RES     
    2263 C0          91.3676   -68.0148   -12.8941 C0            1 RES     
    2264 C0          92.7109   -67.3511   -13.2454 C0            1 RES     
    2265 C0          93.1458   -67.4606   -14.7178 C0            1 RES     
    2266 C0          93.1809   -68.8896   -15.2844 C0            1 RES     
    2267 C0          94.0998   -69.8389   -14.4954 C0            1 RES     
    2268 C0          94.1197   -71.2640   -15.0713 C0            1 RES     
    2269 C0          94.7643   -71.3369   -16.4671 C0            1 RES     
    2270 C0          94.8990   -72.7749   -16.9917 C0            1 RES     
    2271 C0          93.5527   -73.4521   -17.2485 C0            1 RES     
    2272 C0          88.5115   -68.0597   -11.7625 C0            1 RES     
    2273 C0          88.4251   -66.7372   -10.9491 C0            1 RES     
    2274 C0          86.9833   -66.4019   -10.5271 C0            1 RES     
    2275 C0          86.7790   -65.0941    -9.7803 C0            1 RES     
    2276 C0          87.2648   -65.0388    -8.3388 C0            1 RES     
    2277 C0          86.7919   -63.6922    -7.7540 C0            1 RES     
    2278 C0          87.0573   -63.5220    -6.2571 C0            1 RES     
    2279 C0          86.2158   -64.4744    -5.4062 C0            1 RES     
    2280 H6          88.1016   -66.5412   -14.7908 H6            1 RES     
    2281 H6          87.9807   -68.1617   -15.3312 H6            1 RES     
    2282 H6          88.8450   -69.1604   -13.5354 H6            1 RES     
    2283 H6          90.1229   -66.3422   -13.4913 H6            1 RES     
    2284 H6          90.3540   -67.6006   -14.7534 H6            1 RES     
    2285 H6          91.4240   -69.1102   -13.0655 H6            1 RES     
    2286 H6          91.2465   -67.8349   -11.8084 H6            1 RES     
    2287 H6          93.4928   -67.8109   -12.6040 H6            1 RES     
    2288 H6          92.6677   -66.2729   -12.9757 H6            1 RES     
    2289 H6          94.1571   -67.0071   -14.8084 H6            1 RES     
    2290 H6          92.4593   -66.8565   -15.3486 H6            1 RES     
    2291 H6          92.1517   -69.3077   -15.3020 H6            1 RES     
    2292 H6          93.5308   -68.8073   -16.3336 H6            1 RES     
    2293 H6          93.7233   -69.9200   -13.4543 H6            1 RES     
    2294 H6          95.1341   -69.4333   -14.4605 H6            1 RES     
    2295 H6          94.7173   -71.8977   -14.3803 H6            1 RES     
    2296 H6          93.0809   -71.6566   -15.0924 H6            1 RES     
    2297 H6          94.1852   -70.7438   -17.2046 H6            1 RES     
    2298 H6          95.7873   -70.9068   -16.3978 H6            1 RES     
    2299 H6          95.4926   -73.3833   -16.2753 H6            1 RES     
    2300 H6          95.4516   -72.7385   -17.9553 H6            1 RES     
    2301 H6          92.9731   -73.5667   -16.3104 H6            1 RES     
    2302 H6          92.9595   -72.8623   -17.9794 H6            1 RES     
    2303 H6          93.7264   -74.4651   -17.6686 H6            1 RES     
    2304 H6          89.3688   -68.6101   -11.3334 H6            1 RES     
    2305 H6          87.7256   -68.7719   -11.4482 H6            1 RES     
    2306 H6          88.9627   -66.8956    -9.9883 H6            1 RES     
    2307 H6          88.9347   -65.9094   -11.4824 H6            1 RES     
    2308 H6          86.5479   -67.2436    -9.9421 H6            1 RES     
    2309 H6          86.3688   -66.2556   -11.4083 H6            1 RES     
    2310 H6          87.1888   -64.2501   -10.3766 H6            1 RES     
    2311 H6          85.6849   -64.9834    -9.7015 H6            1 RES     
    2312 H6          86.8003   -65.8865    -7.7920 H6            1 RES     
    2313 H6          88.3697   -65.1289    -8.2835 H6            1 RES     
    2314 H6          87.3099   -62.8766    -8.3051 H6            1 RES     
    2315 H6          85.6967   -63.5640    -7.9158 H6            1 RES     
    2316 H6          86.7633   -62.4844    -5.9852 H6            1 RES     
    2317 H6          88.1366   -63.6527    -6.0434 H6            1 RES     
    2318 H6          86.4849   -65.5325    -5.5958 H6            1 RES     
    2319 H6          86.3919   -64.2585    -4.3324 H6            1 RES     
    2320 H6          85.1343   -64.3293    -5.6210 H6            1 RES     
    2321 C0          82.8406   -75.5877   -23.9331 C0            1 RES     
    2322 C1          82.8500   -74.1725   -23.3144 C1            1 RES     
    2323 C1          82.5529   -73.2084   -24.2240 C1            1 RES     
    2324 S2          82.6447   -71.6548   -23.6073 S2            1 RES     
    2325 C1          83.1367   -72.2184   -22.0805 C1            1 RES     
    2326 C1          83.2241   -73.6148   -22.0804 C1            1 RES     
    2327 C1          82.3567   -73.8156   -25.4831 C1            1 RES     
    2328 C1          82.5954   -75.1509   -25.3782 C1            1 RES     
    2329 C1          82.5608   -75.7922   -26.6106 C1            1 RES     
    2330 C1          82.2495   -74.8810   -27.6338 C1            1 RES     
    2331 S2          82.0372   -73.3067   -27.0341 S2            1 RES     
    2332 H3          83.5923   -74.1549   -21.2289 H3            1 RES     
    2333 H3          82.7532   -76.8480   -26.7592 H3            1 RES     
    2334 N4          81.0359   -75.3324   -31.1514 N4            1 RES     
    2335 C1          81.0322   -75.1036   -29.8054 C1            1 RES     
    2336 C1          82.2246   -75.1671   -29.0639 C1            1 RES     
    2337 C1          83.4100   -75.4471   -29.7461 C1            1 RES     
    2338 N4          84.6347   -75.4808   -29.1608 N4            1 RES     
    2339 S2          85.6287   -75.7877   -30.4452 S2            1 RES     
    2340 N4          84.5925   -75.8882   -31.7315 N4            1 RES     
    2341 C1          83.3901   -75.6615   -31.1471 C1            1 RES     
    2342 C1          82.1805   -75.6140   -31.8350 C1            1 RES     
    2343 H5          80.0936   -74.8794   -29.3060 H5            1 RES     
    2344 C0          81.7174   -76.6047   -23.5245 C0            1 RES     
    2345 C0          80.1827   -76.6254   -23.8796 C0            1 RES     
    2346 C0          79.5899   -77.8257   -23.0609 C0            1 RES     
    2347 C0          78.1024   -78.1371   -23.2675 C0            1 RES     
    2348 C0          77.6176   -79.3030   -22.3740 C0            1 RES     
    2349 C0          78.2873   -80.6710   -22.6310 C0            1 RES     
    2350 C0          78.2055   -81.1695   -24.0846 C0            1 RES     
    2351 C0          76.7607   -81.2851   -24.6022 C0            1 RES     
    2352 C0          76.6841   -81.7289   -26.0700 C0            1 RES     
    2353 C0          77.1688   -83.1715   -26.2927 C0            1 RES     
    2354 C0          76.9806   -83.6437   -27.7432 C0            1 RES     
    2355 C0          77.8467   -82.8771   -28.7434 C0            1 RES     
    2356 C0          79.3330   -75.3236   -23.7114 C0            1 RES     
    2357 C0          79.1250   -74.7279   -22.2850 C0            1 RES     
    2358 C0          79.6797   -73.3004   -22.2580 C0            1 RES     
    2359 C0          79.8850   -72.6369   -20.8992 C0            1 RES     
    2360 C0          78.6455   -72.0545   -20.2360 C0            1 RES     
    2361 C0          79.0862   -71.3978   -18.9110 C0            1 RES     
    2362 C0          77.9873   -70.5961   -18.2096 C0            1 RES     
    2363 C0          77.6026   -69.3354   -18.9868 C0            1 RES     
    2364 H6          81.7365   -76.6592   -22.4660 H6            1 RES     
    2365 H6          82.0799   -77.5826   -23.9145 H6            1 RES     
    2366 H6          80.1110   -76.8684   -24.9633 H6            1 RES     
    2367 H6          79.7371   -77.6368   -21.9750 H6            1 RES     
    2368 H6          80.1710   -78.7351   -23.3248 H6            1 RES     
    2369 H6          77.9033   -78.3543   -24.3366 H6            1 RES     
    2370 H6          77.5003   -77.2538   -22.9735 H6            1 RES     
    2371 H6          76.5215   -79.4095   -22.5106 H6            1 RES     
    2372 H6          77.7772   -79.0374   -21.3055 H6            1 RES     
    2373 H6          77.8065   -81.4209   -21.9639 H6            1 RES     
    2374 H6          79.3587   -80.6237   -22.3411 H6            1 RES     
    2375 H6          78.7785   -80.4807   -24.7406 H6            1 RES     
    2376 H6          78.7009   -82.1619   -24.1211 H6            1 RES     
    2377 H6          76.2829   -80.2853   -24.5563 H6            1 RES     
    2378 H6          76.1761   -81.9816   -23.9621 H6            1 RES     
    2379 H6          75.6188   -81.6698   -26.3829 H6            1 RES     
    2380 H6          77.2679   -81.0136   -26.6865 H6            1 RES     
    2381 H6          78.2386   -83.2784   -26.0179 H6            1 RES     
    2382 H6          76.5697   -83.8418   -25.6384 H6            1 RES     
    2383 H6          75.9105   -83.5563   -28.0324 H6            1 RES     
    2384 H6          77.2661   -84.7164   -27.7969 H6            1 RES     
    2385 H6          77.5728   -81.8034   -28.7762 H6            1 RES     
    2386 H6          78.9200   -82.9758   -28.4749 H6            1 RES     
    2387 H6          77.6946   -83.2981   -29.7593 H6            1 RES     
    2388 H6          78.3213   -75.5276   -24.1229 H6            1 RES     
    2389 H6          79.7273   -74.5584   -24.4139 H6            1 RES     
    2390 H6          78.0426   -74.6848   -22.0289 H6            1 RES     
    2391 H6          79.6338   -75.3607   -21.5298 H6            1 RES     
    2392 H6          79.1476   -72.6280   -22.9635 H6            1 RES     
    2393 H6          80.6786   -73.4191   -22.6204 H6            1 RES     
    2394 H6          80.3950   -73.3371   -20.2331 H6            1 RES     
    2395 H6          80.5789   -71.7825   -21.0697 H6            1 RES     
    2396 H6          78.2256   -71.2979   -20.9323 H6            1 RES     
    2397 H6          77.8822   -72.8376   -20.0427 H6            1 RES     
    2398 H6          79.4344   -72.2046   -18.2269 H6            1 RES     
    2399 H6          79.9457   -70.7107   -19.0838 H6            1 RES     
    2400 H6          78.3850   -70.2690   -17.2237 H6            1 RES     
    2401 H6          77.0963   -71.2350   -18.0347 H6            1 RES     
    2402 H6          77.1588   -69.5841   -19.9709 H6            1 RES     
    2403 H6          76.8565   -68.7558   -18.4063 H6            1 RES     
    2404 H6          78.4990   -68.6947   -19.1441 H6            1 RES     
    2405 C0          84.2890   -76.1614   -23.6707 C0            1 RES     
    2406 C0          84.6466   -77.3743   -22.6975 C0            1 RES     
    2407 C0          86.1636   -77.2219   -22.3399 C0            1 RES     
    2408 C0          86.8039   -78.4284   -21.6240 C0            1 RES     
    2409 C0          88.2879   -78.2257   -21.2708 C0            1 RES     
    2410 C0          89.2297   -77.9705   -22.4611 C0            1 RES     
    2411 C0          89.1667   -79.0220   -23.5815 C0            1 RES     
    2412 C0          89.4672   -80.4514   -23.0973 C0            1 RES     
    2413 C0          89.3951   -81.4907   -24.2277 C0            1 RES     
    2414 C0          90.5021   -81.3072   -25.2813 C0            1 RES     
    2415 C0          90.5096   -82.4174   -26.3437 C0            1 RES     
    2416 C0          89.2584   -82.4204   -27.2222 C0            1 RES     
    2417 C0          83.8002   -77.8121   -21.4291 C0            1 RES     
    2418 C0          83.6969   -76.9193   -20.1602 C0            1 RES     
    2419 C0          82.3185   -76.2473   -20.0270 C0            1 RES     
    2420 C0          82.1328   -75.3009   -18.8524 C0            1 RES     
    2421 C0          82.0131   -75.9295   -17.4713 C0            1 RES     
    2422 C0          81.6599   -74.7951   -16.4877 C0            1 RES     
    2423 C0          81.3471   -75.2630   -15.0652 C0            1 RES     
    2424 C0          80.0511   -76.0716   -14.9915 C0            1 RES     
    2425 H6          84.9589   -75.3031   -23.4308 H6            1 RES     
    2426 H6          84.7040   -76.4718   -24.6562 H6            1 RES     
    2427 H6          84.5497   -78.2721   -23.3507 H6            1 RES     
    2428 H6          86.2976   -76.3210   -21.7029 H6            1 RES     
    2429 H6          86.7203   -77.0563   -23.2873 H6            1 RES     
    2430 H6          86.6788   -79.3361   -22.2509 H6            1 RES     
    2431 H6          86.3096   -78.6040   -20.6490 H6            1 RES     
    2432 H6          88.6324   -79.1311   -20.7269 H6            1 RES     
    2433 H6          88.3825   -77.3718   -20.5644 H6            1 RES     
    2434 H6          90.2685   -77.9180   -22.0679 H6            1 RES     
    2435 H6          88.9982   -76.9791   -22.9056 H6            1 RES     
    2436 H6          88.1622   -79.0000   -24.0556 H6            1 RES     
    2437 H6          89.9090   -78.7163   -24.3467 H6            1 RES     
    2438 H6          88.7045   -80.7435   -22.3454 H6            1 RES     
    2439 H6          90.4666   -80.4920   -22.6127 H6            1 RES     
    2440 H6          89.5171   -82.4959   -23.7686 H6            1 RES     
    2441 H6          88.3891   -81.4419   -24.6959 H6            1 RES     
    2442 H6          90.4059   -80.3277   -25.7935 H6            1 RES     
    2443 H6          91.4834   -81.3344   -24.7592 H6            1 RES     
    2444 H6          90.6237   -83.4081   -25.8525 H6            1 RES     
    2445 H6          91.3891   -82.2552   -27.0035 H6            1 RES     
    2446 H6          88.3476   -82.6314   -26.6264 H6            1 RES     
    2447 H6          89.1463   -81.4408   -27.7339 H6            1 RES     
    2448 H6          89.3539   -83.2139   -27.9929 H6            1 RES     
    2449 H6          84.2752   -78.7500   -21.0874 H6            1 RES     
    2450 H6          82.8175   -78.2481   -21.6896 H6            1 RES     
    2451 H6          83.7648   -77.5852   -19.2718 H6            1 RES     
    2452 H6          84.5445   -76.2064   -20.1065 H6            1 RES     
    2453 H6          81.5137   -77.0171   -20.0235 H6            1 RES     
    2454 H6          82.1481   -75.5911   -20.8731 H6            1 RES     
    2455 H6          82.9197   -74.5158   -18.8713 H6            1 RES     
    2456 H6          81.1497   -74.8317   -19.0222 H6            1 RES     
    2457 H6          81.1961   -76.6806   -17.5106 H6            1 RES     
    2458 H6          82.9578   -76.4312   -17.1750 H6            1 RES     
    2459 H6          82.5192   -74.0898   -16.4526 H6            1 RES     
    2460 H6          80.7740   -74.2273   -16.8549 H6            1 RES     
    2461 H6          81.2079   -74.3530   -14.4412 H6            1 RES     
    2462 H6          82.1979   -75.8452   -14.6590 H6            1 RES     
    2463 H6          80.1312   -77.0187   -15.5612 H6            1 RES     
    2464 H6          79.8347   -76.3209   -13.9325 H6            1 RES     
    2465 H6          79.2020   -75.4758   -15.3927 H6            1 RES     
    2466 C0          81.8453   -78.0295   -36.6962 C0            1 RES     
    2467 C1          81.9244   -77.0244   -35.5261 C1            1 RES     
    2468 C1          82.2297   -75.7681   -35.9432 C1            1 RES     
    2469 S2          82.4139   -74.6729   -34.6906 S2            1 RES     
    2470 C1          82.1291   -75.8679   -33.5152 C1            1 RES     
    2471 C1          81.8977   -77.1063   -34.1239 C1            1 RES     
    2472 C1          82.4141   -75.7855   -37.3426 C1            1 RES     
    2473 C1          82.2902   -77.0627   -37.7946 C1            1 RES     
    2474 C1          82.6008   -77.1779   -39.1442 C1            1 RES     
    2475 C1          82.9262   -75.9229   -39.6859 C1            1 RES     
    2476 S2          82.8502   -74.6925   -38.5181 S2            1 RES     
    2477 H3          81.7727   -78.0021   -33.5459 H3            1 RES     
    2478 H3          82.5969   -78.1090   -39.6982 H3            1 RES     
    2479 N4          83.1230   -74.6520   -43.2067 N4            1 RES     
    2480 C1          82.6422   -74.9183   -41.9569 C1            1 RES     
    2481 C1          83.4017   -75.6664   -41.0407 C1            1 RES     
    2482 C1          84.6656   -76.1068   -41.4379 C1            1 RES     
    2483 N4          85.5218   -76.7869   -40.6330 N4            1 RES     
    2484 S2          86.8451   -76.9720   -41.6057 S2            1 RES     
    2485 N4          86.4026   -76.2345   -43.0195 N4            1 RES     
    2486 C1          85.1501   -75.8003   -42.7342 C1            1 RES     
    2487 C1          84.3507   -75.0782   -43.6165 C1            1 RES     
    2488 H5          81.6581   -74.5535   -41.6760 H5            1 RES     
    2489 C0          80.4569   -78.6378   -37.1027 C0            1 RES     
    2490 C0          79.2216   -77.9707   -37.8174 C0            1 RES     
    2491 C0          78.1052   -79.0734   -37.8181 C0            1 RES     
    2492 C0          76.7894   -78.7260   -38.5254 C0            1 RES     
    2493 C0          75.7476   -79.8645   -38.4184 C0            1 RES     
    2494 C0          76.1433   -81.2027   -39.0807 C0            1 RES     
    2495 C0          76.5302   -81.1008   -40.5667 C0            1 RES     
    2496 C0          75.4178   -80.4924   -41.4391 C0            1 RES     
    2497 C0          75.8271   -80.3402   -42.9112 C0            1 RES     
    2498 C0          76.0275   -81.6869   -43.6264 C0            1 RES     
    2499 C0          76.3240   -81.5244   -45.1257 C0            1 RES     
    2500 C0          77.6596   -80.8337   -45.4042 C0            1 RES     
    2501 C0          78.6855   -76.5929   -37.3080 C0            1 RES     
    2502 C0          78.0721   -76.4953   -35.8773 C0            1 RES     
    2503 C0          78.8729   -75.4747   -35.0629 C0            1 RES     
    2504 C0          78.6701   -75.4466   -33.5507 C0            1 RES     
    2505 C0          77.4323   -74.7187   -33.0471 C0            1 RES     
    2506 C0          77.4513   -74.7710   -31.5050 C0            1 RES     
    2507 C0          76.3728   -73.9184   -30.8327 C0            1 RES     
    2508 C0          76.6136   -72.4197   -31.0258 C0            1 RES     
    2509 H6          80.0465   -79.0579   -36.2201 H6            1 RES     
    2510 H6          80.7169   -79.4805   -37.7824 H6            1 RES     
    2511 H6          79.5289   -77.7796   -38.8698 H6            1 RES     
    2512 H6          77.8524   -79.3396   -36.7685 H6            1 RES     
    2513 H6          78.5261   -79.9807   -38.3020 H6            1 RES     
    2514 H6          76.9830   -78.4711   -39.5871 H6            1 RES     
    2515 H6          76.3322   -77.8440   -38.0330 H6            1 RES     
    2516 H6          74.7992   -79.5077   -38.8705 H6            1 RES     
    2517 H6          75.5297   -80.0629   -37.3456 H6            1 RES     
    2518 H6          75.2862   -81.9050   -38.9775 H6            1 RES     
    2519 H6          76.9965   -81.6546   -38.5311 H6            1 RES     
    2520 H6          77.4517   -80.4889   -40.6639 H6            1 RES     
    2521 H6          76.7669   -82.1270   -40.9168 H6            1 RES     
    2522 H6          75.1948   -79.4695   -41.0731 H6            1 RES     
    2523 H6          74.4904   -81.1012   -41.3620 H6            1 RES     
    2524 H6          75.0119   -79.7907   -43.4305 H6            1 RES     
    2525 H6          76.7487   -79.7230   -42.9598 H6            1 RES     
    2526 H6          76.8510   -82.2663   -43.1599 H6            1 RES     
    2527 H6          75.0875   -82.2728   -43.5292 H6            1 RES     
    2528 H6          75.5015   -80.9569   -45.6134 H6            1 RES     
    2529 H6          76.3624   -82.5371   -45.5819 H6            1 RES     
    2530 H6          77.6657   -79.7944   -45.0182 H6            1 RES     
    2531 H6          78.4905   -81.4049   -44.9384 H6            1 RES     
    2532 H6          77.8291   -80.7904   -46.5005 H6            1 RES     
    2533 H6          77.8986   -76.2563   -38.0164 H6            1 RES     
    2534 H6          79.4826   -75.8335   -37.4572 H6            1 RES     
    2535 H6          77.0148   -76.1501   -35.9234 H6            1 RES     
    2536 H6          78.0898   -77.4895   -35.3864 H6            1 RES     
    2537 H6          78.8237   -74.4550   -35.4996 H6            1 RES     
    2538 H6          79.8806   -75.8179   -35.1634 H6            1 RES     
    2539 H6          78.7088   -76.4686   -33.1659 H6            1 RES     
    2540 H6          79.5457   -74.9038   -33.1274 H6            1 RES     
    2541 H6          77.4983   -73.6706   -33.4084 H6            1 RES     
    2542 H6          76.5016   -75.1824   -33.4369 H6            1 RES     
    2543 H6          77.3150   -75.8321   -31.1956 H6            1 RES     
    2544 H6          78.4387   -74.4326   -31.1160 H6            1 RES     
    2545 H6          76.4134   -74.1224   -29.7401 H6            1 RES     
    2546 H6          75.3671   -74.2043   -31.2065 H6            1 RES     
    2547 H6          76.5484   -72.1317   -32.0935 H6            1 RES     
    2548 H6          75.8481   -71.8463   -30.4645 H6            1 RES     
    2549 H6          77.6175   -72.1402   -30.6348 H6            1 RES     
    2550 C0          82.9082   -79.1464   -36.3521 C0            1 RES     
    2551 C0          82.5769   -80.6617   -35.9775 C0            1 RES     
    2552 C0          83.8245   -81.2095   -35.2058 C0            1 RES     
    2553 C0          83.8480   -82.7337   -34.9734 C0            1 RES     
    2554 C0          85.0791   -83.2245   -34.1913 C0            1 RES     
    2555 C0          86.4435   -82.9375   -34.8434 C0            1 RES     
    2556 C0          86.5939   -83.4353   -36.2905 C0            1 RES     
    2557 C0          86.3554   -84.9477   -36.4457 C0            1 RES     
    2558 C0          86.5044   -85.4282   -37.8984 C0            1 RES     
    2559 C0          87.9467   -85.3109   -38.4229 C0            1 RES     
    2560 C0          88.1243   -85.9054   -39.8288 C0            1 RES     
    2561 C0          87.3513   -85.1458   -40.9071 C0            1 RES     
    2562 C0          81.2266   -81.1684   -35.3165 C0            1 RES     
    2563 C0          80.8343   -80.7980   -33.8581 C0            1 RES     
    2564 C0          79.7004   -79.7585   -33.8022 C0            1 RES     
    2565 C0          79.2834   -79.2791   -32.4216 C0            1 RES     
    2566 C0          78.4953   -80.2558   -31.5602 C0            1 RES     
    2567 C0          78.0454   -79.4865   -30.3014 C0            1 RES     
    2568 C0          77.1044   -80.2679   -29.3826 C0            1 RES     
    2569 C0          75.7393   -80.5172   -30.0257 C0            1 RES     
    2570 H6          83.6023   -78.7333   -35.5836 H6            1 RES     
    2571 H6          83.5966   -79.2259   -37.2237 H6            1 RES     
    2572 H6          82.5478   -81.1759   -36.9659 H6            1 RES     
    2573 H6          83.8938   -80.7006   -34.2201 H6            1 RES     
    2574 H6          84.7299   -80.9428   -35.7923 H6            1 RES     
    2575 H6          83.7812   -83.2553   -35.9512 H6            1 RES     
    2576 H6          82.9852   -83.0415   -34.3515 H6            1 RES     
    2577 H6          84.9727   -84.3209   -34.0471 H6            1 RES     
    2578 H6          85.0755   -82.7657   -33.1782 H6            1 RES     
    2579 H6          87.2282   -83.4087   -34.2119 H6            1 RES     
    2580 H6          86.6308   -81.8426   -34.8344 H6            1 RES     
    2581 H6          85.8880   -82.8845   -36.9482 H6            1 RES     
    2582 H6          87.6245   -83.1787   -36.6097 H6            1 RES     
    2583 H6          85.3149   -85.1805   -36.1371 H6            1 RES     
    2584 H6          87.0485   -85.5165   -35.7888 H6            1 RES     
    2585 H6          86.2105   -86.5000   -37.9298 H6            1 RES     
    2586 H6          85.8008   -84.8556   -38.5392 H6            1 RES     
    2587 H6          88.2788   -84.2525   -38.4416 H6            1 RES     
    2588 H6          88.6118   -85.8744   -37.7328 H6            1 RES     
    2589 H6          87.8139   -86.9728   -39.8284 H6            1 RES     
    2590 H6          89.2042   -85.8594   -40.0871 H6            1 RES     
    2591 H6          86.2577   -85.2004   -40.7338 H6            1 RES     
    2592 H6          87.6691   -84.0817   -40.9296 H6            1 RES     
    2593 H6          87.5632   -85.5998   -41.8980 H6            1 RES     
    2594 H6          81.3087   -82.2707   -35.3250 H6            1 RES     
    2595 H6          80.3549   -81.0949   -35.9936 H6            1 RES     
    2596 H6          80.3987   -81.7053   -33.3844 H6            1 RES     
    2597 H6          81.7278   -80.5113   -33.2675 H6            1 RES     
    2598 H6          78.8100   -80.1300   -34.3586 H6            1 RES     
    2599 H6          80.0256   -78.8367   -34.2713 H6            1 RES     
    2600 H6          80.1672   -78.8826   -31.8761 H6            1 RES     
    2601 H6          78.5764   -78.4549   -32.6120 H6            1 RES     
    2602 H6          77.6150   -80.5918   -32.1479 H6            1 RES     
    2603 H6          79.1113   -81.1377   -31.2868 H6            1 RES     
    2604 H6          78.9550   -79.2042   -29.7268 H6            1 RES     
    2605 H6          77.5245   -78.5445   -30.5898 H6            1 RES     
    2606 H6          76.9368   -79.6466   -28.4755 H6            1 RES     
    2607 H6          77.5755   -81.2230   -29.0766 H6            1 RES     
    2608 H6          75.8246   -81.1676   -30.9187 H6            1 RES     
    2609 H6          75.0754   -81.0194   -29.2925 H6            1 RES     
    2610 H6          75.2708   -79.5527   -30.3208 H6            1 RES     
    2611 C0          85.4237   -75.3612   -48.9406 C0            1 RES     
    2612 C1          85.2579   -74.9265   -47.4678 C1            1 RES     
    2613 C1          85.9723   -73.8089   -47.1748 C1            1 RES     
    2614 S2          85.8880   -73.3634   -45.5634 S2            1 RES     
    2615 C1          84.9078   -74.6978   -45.1769 C1            1 RES     
    2616 C1          84.6657   -75.4723   -46.3167 C1            1 RES     
    2617 C1          86.6822   -73.4076   -48.3271 C1            1 RES     
    2618 C1          86.4660   -74.3092   -49.3227 C1            1 RES     
    2619 C1          87.2473   -74.0559   -50.4437 C1            1 RES     
    2620 C1          88.0284   -72.9038   -50.2522 C1            1 RES     
    2621 S2          87.7750   -72.2168   -48.7201 S2            1 RES     
    2622 H3          84.1288   -76.4003   -46.2621 H3            1 RES     
    2623 H3          87.2550   -74.6674   -51.3381 H3            1 RES     
    2624 N4          89.8672   -70.6606   -52.6265 N4            1 RES     
    2625 C1          88.8886   -71.1467   -51.8079 C1            1 RES     
    2626 C1          89.0414   -72.3880   -51.1662 C1            1 RES     
    2627 C1          90.2279   -73.0941   -51.3723 C1            1 RES     
    2628 N4          90.5258   -74.2735   -50.7694 N4            1 RES     
    2629 S2          92.0478   -74.5820   -51.3351 S2            1 RES     
    2630 N4          92.3708   -73.2939   -52.3225 N4            1 RES     
    2631 C1          91.2370   -72.5586   -52.2115 C1            1 RES     
    2632 C1          91.0295   -71.3369   -52.8465 C1            1 RES     
    2633 H5          87.9806   -70.5681   -51.6616 H5            1 RES     
    2634 C0          84.2090   -75.2375   -49.9265 C0            1 RES     
    2635 C0          83.5344   -73.9615   -50.5579 C0            1 RES     
    2636 C0          82.2937   -74.5049   -51.3503 C0            1 RES     
    2637 C0          81.4735   -73.4782   -52.1412 C0            1 RES     
    2638 C0          80.2494   -74.1170   -52.8385 C0            1 RES     
    2639 C0          80.5659   -75.1890   -53.9046 C0            1 RES     
    2640 C0          81.5170   -74.7289   -55.0235 C0            1 RES     
    2641 C0          81.0011   -73.4942   -55.7837 C0            1 RES     
    2642 C0          81.9777   -73.0036   -56.8621 C0            1 RES     
    2643 C0          82.1389   -73.9931   -58.0285 C0            1 RES     
    2644 C0          83.0280   -73.4429   -59.1551 C0            1 RES     
    2645 C0          84.4825   -73.2393   -58.7296 C0            1 RES     
    2646 C0          83.1611   -72.7511   -49.6411 C0            1 RES     
    2647 C0          82.0738   -72.9367   -48.5384 C0            1 RES     
    2648 C0          82.6953   -72.6301   -47.1725 C0            1 RES     
    2649 C0          81.9271   -73.0543   -45.9240 C0            1 RES     
    2650 C0          80.7858   -72.1462   -45.4902 C0            1 RES     
    2651 C0          80.1861   -72.7315   -44.1944 C0            1 RES     
    2652 C0          79.1484   -71.8323   -43.5187 C0            1 RES     
    2653 C0          79.7711   -70.5592   -42.9420 C0            1 RES     
    2654 H6          83.4032   -75.7552   -49.4720 H6            1 RES     
    2655 H6          84.5210   -75.8257   -50.8189 H6            1 RES     
    2656 H6          84.2641   -73.5452   -51.2879 H6            1 RES     
    2657 H6          81.5972   -75.0051   -50.6425 H6            1 RES     
    2658 H6          82.6583   -75.2755   -52.0628 H6            1 RES     
    2659 H6          82.1195   -72.9618   -52.8800 H6            1 RES     
    2660 H6          81.0676   -72.7190   -51.4425 H6            1 RES     
    2661 H6          79.6591   -73.3050   -53.3112 H6            1 RES     
    2662 H6          79.5899   -74.5795   -52.0710 H6            1 RES     
    2663 H6          79.6047   -75.5174   -54.3592 H6            1 RES     
    2664 H6          81.0118   -76.0820   -53.4167 H6            1 RES     
    2665 H6          82.5133   -74.5043   -54.5877 H6            1 RES     
    2666 H6          81.6383   -75.5810   -55.7241 H6            1 RES     
    2667 H6          80.8850   -72.6554   -55.0675 H6            1 RES     
    2668 H6          80.0080   -73.7070   -56.2367 H6            1 RES     
    2669 H6          81.5755   -72.0507   -57.2701 H6            1 RES     
    2670 H6          82.9563   -72.7913   -56.3826 H6            1 RES     
    2671 H6          82.5627   -74.9566   -57.6769 H6            1 RES     
    2672 H6          81.1318   -74.1884   -58.4573 H6            1 RES     
    2673 H6          82.6108   -72.4828   -59.5298 H6            1 RES     
    2674 H6          83.0168   -74.1741   -59.9920 H6            1 RES     
    2675 H6          84.5668   -72.4772   -57.9288 H6            1 RES     
    2676 H6          84.9150   -74.1982   -58.3730 H6            1 RES     
    2677 H6          85.0736   -72.8849   -59.5999 H6            1 RES     
    2678 H6          82.8113   -71.9271   -50.2991 H6            1 RES     
    2679 H6          84.0996   -72.3356   -49.2155 H6            1 RES     
    2680 H6          81.2246   -72.2352   -48.6990 H6            1 RES     
    2681 H6          81.6767   -73.9718   -48.5651 H6            1 RES     
    2682 H6          83.0487   -71.5802   -47.0963 H6            1 RES     
    2683 H6          83.5583   -73.2610   -47.1490 H6            1 RES     
    2684 H6          81.5843   -74.0844   -46.0482 H6            1 RES     
    2685 H6          82.6630   -73.0525   -45.0879 H6            1 RES     
    2686 H6          81.2187   -71.1400   -45.3067 H6            1 RES     
    2687 H6          80.0052   -72.0710   -46.2764 H6            1 RES     
    2688 H6          79.7080   -73.7052   -44.4465 H6            1 RES     
    2689 H6          80.9899   -72.9354   -43.4507 H6            1 RES     
    2690 H6          78.7107   -72.4012   -42.6690 H6            1 RES     
    2691 H6          78.3339   -71.5816   -44.2305 H6            1 RES     
    2692 H6          80.1957   -69.9173   -43.7388 H6            1 RES     
    2693 H6          78.9946   -69.9774   -42.4050 H6            1 RES     
    2694 H6          80.5758   -70.8206   -42.2189 H6            1 RES     
    2695 C0          85.9900   -76.8344   -48.8737 C0            1 RES     
    2696 C0          85.2116   -78.1515   -49.3270 C0            1 RES     
    2697 C0          85.9013   -79.3487   -48.5896 C0            1 RES     
    2698 C0          85.4933   -80.7544   -49.0751 C0            1 RES     
    2699 C0          86.1768   -81.8997   -48.3075 C0            1 RES     
    2700 C0          87.7142   -81.9262   -48.3755 C0            1 RES     
    2701 C0          88.3060   -81.9110   -49.7947 C0            1 RES     
    2702 C0          87.8189   -83.0764   -50.6738 C0            1 RES     
    2703 C0          88.4155   -83.0439   -52.0902 C0            1 RES     
    2704 C0          89.9348   -83.2895   -52.1059 C0            1 RES     
    2705 C0          90.5133   -83.3821   -53.5265 C0            1 RES     
    2706 C0          90.4147   -82.0699   -54.3048 C0            1 RES     
    2707 C0          83.6345   -78.3231   -49.3470 C0            1 RES     
    2708 C0          82.7941   -78.3637   -48.0393 C0            1 RES     
    2709 C0          81.9902   -77.0697   -47.8189 C0            1 RES     
    2710 C0          81.1825   -76.9801   -46.5346 C0            1 RES     
    2711 C0          79.9246   -77.8330   -46.4490 C0            1 RES     
    2712 C0          79.1994   -77.4388   -45.1461 C0            1 RES     
    2713 C0          77.8257   -78.0868   -44.9634 C0            1 RES     
    2714 C0          76.8042   -77.5796   -45.9824 C0            1 RES     
    2715 H6          86.3997   -76.9976   -47.8497 H6            1 RES     
    2716 H6          86.9290   -76.8540   -49.4720 H6            1 RES     
    2717 H6          85.4595   -78.2433   -50.4096 H6            1 RES     
    2718 H6          85.6891   -79.2753   -47.5011 H6            1 RES     
    2719 H6          86.9987   -79.2472   -48.7314 H6            1 RES     
    2720 H6          85.7018   -80.8423   -50.1620 H6            1 RES     
    2721 H6          84.4109   -80.9192   -48.9106 H6            1 RES     
    2722 H6          85.7822   -82.8578   -48.7085 H6            1 RES     
    2723 H6          85.8777   -81.8524   -47.2373 H6            1 RES     
    2724 H6          88.0625   -82.8391   -47.8445 H6            1 RES     
    2725 H6          88.1205   -81.0521   -47.8233 H6            1 RES     
    2726 H6          88.0559   -80.9491   -50.2913 H6            1 RES     
    2727 H6          89.4082   -81.9565   -49.6803 H6            1 RES     
    2728 H6          86.7173   -83.0031   -50.7891 H6            1 RES     
    2729 H6          88.0539   -84.0488   -50.1894 H6            1 RES     
    2730 H6          87.9279   -83.8511   -52.6790 H6            1 RES     
    2731 H6          88.1656   -82.0698   -52.5620 H6            1 RES     
    2732 H6          90.4731   -82.4904   -51.5558 H6            1 RES     
    2733 H6          90.1330   -84.2587   -51.5981 H6            1 RES     
    2734 H6          89.9995   -84.1906   -54.0906 H6            1 RES     
    2735 H6          91.5889   -83.6486   -53.4425 H6            1 RES     
    2736 H6          89.3582   -81.7763   -54.4686 H6            1 RES     
    2737 H6          90.9429   -81.2593   -53.7591 H6            1 RES     
    2738 H6          90.8920   -82.1971   -55.2991 H6            1 RES     
    2739 H6          83.4670   -79.3025   -49.8314 H6            1 RES     
    2740 H6          83.1383   -77.7062   -50.1196 H6            1 RES     
    2741 H6          82.0184   -79.1517   -48.1603 H6            1 RES     
    2742 H6          83.4236   -78.6476   -47.1718 H6            1 RES     
    2743 H6          81.3314   -76.8719   -48.6948 H6            1 RES     
    2744 H6          82.6689   -76.2303   -47.7163 H6            1 RES     
    2745 H6          81.8453   -77.1500   -45.6584 H6            1 RES     
    2746 H6          80.8086   -75.9432   -46.5095 H6            1 RES     
    2747 H6          79.2949   -77.5974   -47.3329 H6            1 RES     
    2748 H6          80.1718   -78.9150   -46.4534 H6            1 RES     
    2749 H6          79.8486   -77.7269   -44.2900 H6            1 RES     
    2750 H6          79.0563   -76.3345   -45.1024 H6            1 RES     
    2751 H6          77.4579   -77.8023   -43.9531 H6            1 RES     
    2752 H6          77.9146   -79.1902   -45.0111 H6            1 RES     
    2753 H6          77.0866   -77.8640   -47.0154 H6            1 RES     
    2754 H6          75.8126   -78.0237   -45.7589 H6            1 RES     
    2755 H6          76.7154   -76.4727   -45.9205 H6            1 RES     
    2756 C0          94.0138   -70.1336   -57.2311 C0            1 RES     
    2757 C1          93.3842   -70.2066   -55.8226 C1            1 RES     
    2758 C1          94.1546   -69.6042   -54.8798 C1            1 RES     
    2759 S2          93.5458   -69.7456   -53.3268 S2            1 RES     
    2760 C1          92.2234   -70.6729   -53.8583 C1            1 RES     
    2761 C1          92.2829   -70.8592   -55.2437 C1            1 RES     
    2762 C1          95.3294   -69.1192   -55.4941 C1            1 RES     
    2763 C1          95.3273   -69.4747   -56.8073 C1            1 RES     
    2764 C1          96.5208   -69.1545   -57.4433 C1            1 RES     
    2765 C1          97.3982   -68.5115   -56.5539 C1            1 RES     
    2766 S2          96.7230   -68.3550   -55.0037 S2            1 RES     
    2767 H3          91.5767   -71.4830   -55.7578 H3            1 RES     
    2768 H3          96.7430   -69.3762   -58.4802 H3            1 RES     
    2769 N4         100.4683   -66.4265   -57.0804 N4            1 RES     
    2770 C1          99.1658   -66.7710   -56.8593 C1            1 RES     
    2771 C1          98.7754   -68.1211   -56.8338 C1            1 RES     
    2772 C1          99.7591   -69.0944   -57.0177 C1            1 RES     
    2773 N4          99.5271   -70.4309   -56.9592 N4            1 RES     
    2774 S2         101.0395   -71.0594   -57.1816 S2            1 RES     
    2775 N4         102.0007   -69.7236   -57.3558 N4            1 RES     
    2776 C1         101.1078   -68.7114   -57.2259 C1            1 RES     
    2777 C1         101.4424   -67.3605   -57.2689 C1            1 RES     
    2778 H5          98.4260   -65.9890   -56.7110 H5            1 RES     
    2779 C0          93.3436   -69.2409   -58.3341 C0            1 RES     
    2780 C0          93.2719   -67.6732   -58.4720 C0            1 RES     
    2781 C0          92.3549   -67.4140   -59.7187 C0            1 RES     
    2782 C0          92.1604   -65.9532   -60.1435 C0            1 RES     
    2783 C0          91.1996   -65.8155   -61.3480 C0            1 RES     
    2784 C0          91.6631   -66.4888   -62.6586 C0            1 RES     
    2785 C0          93.0530   -66.0529   -63.1546 C0            1 RES     
    2786 C0          93.1643   -64.5345   -63.3793 C0            1 RES     
    2787 C0          94.5681   -64.0956   -63.8204 C0            1 RES     
    2788 C0          94.9504   -64.6062   -65.2199 C0            1 RES     
    2789 C0          96.3080   -64.0671   -65.6980 C0            1 RES     
    2790 C0          97.4847   -64.5712   -64.8616 C0            1 RES     
    2791 C0          92.8471   -66.8078   -57.2409 C0            1 RES     
    2792 C0          91.4026   -66.9511   -56.6702 C0            1 RES     
    2793 C0          91.4894   -67.3861   -55.2042 C0            1 RES     
    2794 C0          90.2198   -67.9028   -54.5335 C0            1 RES     
    2795 C0          89.2319   -66.8502   -54.0523 C0            1 RES     
    2796 C0          88.0584   -67.5842   -53.3700 C0            1 RES     
    2797 C0          87.0661   -66.6608   -52.6595 C0            1 RES     
    2798 C0          87.6778   -65.9886   -51.4286 C0            1 RES     
    2799 H6          92.3313   -69.5501   -58.3923 H6            1 RES     
    2800 H6          93.8421   -69.5548   -59.2790 H6            1 RES     
    2801 H6          94.3020   -67.3284   -58.7144 H6            1 RES     
    2802 H6          91.3445   -67.8357   -59.5244 H6            1 RES     
    2803 H6          92.7891   -67.9669   -60.5790 H6            1 RES     
    2804 H6          93.1414   -65.4883   -60.3702 H6            1 RES     
    2805 H6          91.6921   -65.3903   -59.3110 H6            1 RES     
    2806 H6          91.0381   -64.7343   -61.5384 H6            1 RES     
    2807 H6          90.2073   -66.2387   -61.0761 H6            1 RES     
    2808 H6          90.9106   -66.2632   -63.4468 H6            1 RES     
    2809 H6          91.6719   -67.5923   -62.5298 H6            1 RES     
    2810 H6          93.8213   -66.3746   -62.4202 H6            1 RES     
    2811 H6          93.2475   -66.5913   -64.1055 H6            1 RES     
    2812 H6          92.9655   -64.0150   -62.4199 H6            1 RES     
    2813 H6          92.4084   -64.1979   -64.1223 H6            1 RES     
    2814 H6          94.5802   -62.9840   -63.8425 H6            1 RES     
    2815 H6          95.3005   -64.4365   -63.0589 H6            1 RES     
    2816 H6          94.9773   -65.7153   -65.2450 H6            1 RES     
    2817 H6          94.1763   -64.2577   -65.9380 H6            1 RES     
    2818 H6          96.2954   -62.9553   -65.6925 H6            1 RES     
    2819 H6          96.4645   -64.4052   -66.7451 H6            1 RES     
    2820 H6          97.4146   -64.2206   -63.8122 H6            1 RES     
    2821 H6          97.5184   -65.6813   -64.8781 H6            1 RES     
    2822 H6          98.4324   -64.1807   -65.2880 H6            1 RES     
    2823 H6          92.9755   -65.7403   -57.5207 H6            1 RES     
    2824 H6          93.6100   -66.9398   -56.4439 H6            1 RES     
    2825 H6          90.8629   -65.9784   -56.7125 H6            1 RES     
    2826 H6          90.8293   -67.6905   -57.2655 H6            1 RES     
    2827 H6          92.0076   -66.6350   -54.5715 H6            1 RES     
    2828 H6          92.1109   -68.2554   -55.2432 H6            1 RES     
    2829 H6          89.7342   -68.6242   -55.1954 H6            1 RES     
    2830 H6          90.5491   -68.4600   -53.6270 H6            1 RES     
    2831 H6          89.7692   -66.2031   -53.3271 H6            1 RES     
    2832 H6          88.8601   -66.2274   -54.8932 H6            1 RES     
    2833 H6          87.5148   -68.1629   -54.1509 H6            1 RES     
    2834 H6          88.4390   -68.3119   -52.6176 H6            1 RES     
    2835 H6          86.2159   -67.2857   -52.3075 H6            1 RES     
    2836 H6          86.6738   -65.8998   -53.3665 H6            1 RES     
    2837 H6          88.5117   -65.3141   -51.7060 H6            1 RES     
    2838 H6          86.9028   -65.3872   -50.9115 H6            1 RES     
    2839 H6          88.0546   -66.7593   -50.7195 H6            1 RES     
    2840 C0          94.1667   -71.6369   -57.6920 C0            1 RES     
    2841 C0          93.3578   -72.3328   -58.8784 C0            1 RES     
    2842 C0          93.4190   -73.8745   -58.6106 C0            1 RES     
    2843 C0          92.9338   -74.7715   -59.7674 C0            1 RES     
    2844 C0          92.9890   -76.2767   -59.4520 C0            1 RES     
    2845 C0          94.3823   -76.8393   -59.1186 C0            1 RES     
    2846 C0          95.4709   -76.5523   -60.1662 C0            1 RES     
    2847 C0          95.1228   -77.0766   -61.5704 C0            1 RES     
    2848 C0          96.2183   -76.7773   -62.6065 C0            1 RES     
    2849 C0          97.5264   -77.5408   -62.3324 C0            1 RES     
    2850 C0          98.5797   -77.3414   -63.4333 C0            1 RES     
    2851 C0          99.0878   -75.9027   -63.5289 C0            1 RES     
    2852 C0          91.9198   -71.8963   -59.3869 C0            1 RES     
    2853 C0          90.6475   -72.0756   -58.5111 C0            1 RES     
    2854 C0          90.1300   -70.7394   -57.9487 C0            1 RES     
    2855 C0          88.9249   -70.8102   -57.0254 C0            1 RES     
    2856 C0          87.5794   -71.1157   -57.6683 C0            1 RES     
    2857 C0          86.5080   -70.9600   -56.5697 C0            1 RES     
    2858 C0          85.0665   -71.0797   -57.0675 C0            1 RES     
    2859 C0          84.6667   -69.9150   -57.9746 C0            1 RES     
    2860 H6          94.0945   -72.2820   -56.7856 H6            1 RES     
    2861 H6          95.2354   -71.7909   -57.9644 H6            1 RES     
    2862 H6          93.9836   -72.1285   -59.7777 H6            1 RES     
    2863 H6          92.8187   -74.1097   -57.7053 H6            1 RES     
    2864 H6          94.4768   -74.1399   -58.3977 H6            1 RES     
    2865 H6          93.5269   -74.5481   -60.6789 H6            1 RES     
    2866 H6          91.8664   -74.5742   -59.9857 H6            1 RES     
    2867 H6          92.5819   -76.8211   -60.3307 H6            1 RES     
    2868 H6          92.3126   -76.4963   -58.5969 H6            1 RES     
    2869 H6          94.2827   -77.9391   -58.9876 H6            1 RES     
    2870 H6          94.7221   -76.4240   -58.1459 H6            1 RES     
    2871 H6          95.6556   -75.4581   -60.2198 H6            1 RES     
    2872 H6          96.3998   -77.0350   -59.8000 H6            1 RES     
    2873 H6          94.2009   -76.5698   -61.9245 H6            1 RES     
    2874 H6          94.9270   -78.1702   -61.5358 H6            1 RES     
    2875 H6          95.8353   -77.0925   -63.6015 H6            1 RES     
    2876 H6          96.3962   -75.6813   -62.6335 H6            1 RES     
    2877 H6          97.9682   -77.2379   -61.3608 H6            1 RES     
    2878 H6          97.2893   -78.6261   -62.2860 H6            1 RES     
    2879 H6          98.1633   -77.6566   -64.4147 H6            1 RES     
    2880 H6          99.4479   -77.9948   -63.2002 H6            1 RES     
    2881 H6          98.2740   -75.2054   -63.8130 H6            1 RES     
    2882 H6          99.5248   -75.5846   -62.5585 H6            1 RES     
    2883 H6          99.8759   -75.8437   -64.3088 H6            1 RES     
    2884 H6          91.7433   -72.5135   -60.2868 H6            1 RES     
    2885 H6          91.9167   -70.9144   -59.8965 H6            1 RES     
    2886 H6          89.8279   -72.4303   -59.1742 H6            1 RES     
    2887 H6          90.8061   -72.8514   -57.7349 H6            1 RES     
    2888 H6          89.9294   -70.0244   -58.7786 H6            1 RES     
    2889 H6          90.8816   -70.2985   -57.3034 H6            1 RES     
    2890 H6          89.1351   -71.5027   -56.1816 H6            1 RES     
    2891 H6          88.8110   -69.7862   -56.6330 H6            1 RES     
    2892 H6          87.4162   -70.3759   -58.4804 H6            1 RES     
    2893 H6          87.5621   -72.1394   -58.0968 H6            1 RES     
    2894 H6          86.6878   -71.7427   -55.8001 H6            1 RES     
    2895 H6          86.6078   -69.9687   -56.0705 H6            1 RES     
    2896 H6          84.4047   -71.0485   -56.1742 H6            1 RES     
    2897 H6          84.9201   -72.0490   -57.5840 H6            1 RES     
    2898 H6          85.2612   -69.9069   -58.9097 H6            1 RES     
    2899 H6          83.5954   -70.0126   -58.2452 H6            1 RES     
    2900 H6          84.8084   -68.9477   -57.4444 H6            1 RES     
    2901 C0         106.0936   -65.8983   -59.6788 C0            1 RES     
    2902 C1         104.9626   -66.2177   -58.6764 C1            1 RES     
    2903 C1         105.4140   -66.3056   -57.3982 C1            1 RES     
    2904 S2         104.2298   -66.7416   -56.2982 S2            1 RES     
    2905 C1         103.0524   -66.8745   -57.5176 C1            1 RES     
    2906 C1         103.6078   -66.5781   -58.7672 C1            1 RES     
    2907 C1         106.8113   -66.1046   -57.3942 C1            1 RES     
    2908 C1         107.2459   -65.9568   -58.6749 C1            1 RES     
    2909 C1         108.6318   -65.8976   -58.7589 C1            1 RES     
    2910 C1         109.2085   -65.9712   -57.4798 C1            1 RES     
    2911 S2         108.0322   -66.1245   -56.2648 S2            1 RES     
    2912 H3         103.0409   -66.6805   -59.6729 H3            1 RES     
    2913 H3         109.1880   -65.8120   -59.6848 H3            1 RES     
    2914 N4         112.6178   -65.1127   -56.1798 N4            1 RES     
    2915 C1         111.2920   -65.0095   -56.4889 C1            1 RES     
    2916 C1         110.6344   -66.0416   -57.1804 C1            1 RES     
    2917 C1         111.3690   -67.1793   -57.5194 C1            1 RES     
    2918 N4         110.8428   -68.2690   -58.1351 N4            1 RES     
    2919 S2         112.1410   -69.2891   -58.2122 S2            1 RES     
    2920 N4         113.3634   -68.4271   -57.5042 N4            1 RES     
    2921 C1         112.7397   -67.2705   -57.1698 C1            1 RES     
    2922 C1         113.3545   -66.2112   -56.5075 C1            1 RES     
    2923 H5         110.7466   -64.1143   -56.2028 H5            1 RES     
    2924 C0         106.1259   -64.5003   -60.3909 C0            1 RES     
    2925 C0         106.4633   -63.0720   -59.8180 C0            1 RES     
    2926 C0         106.1912   -62.0811   -61.0039 C0            1 RES     
    2927 C0         106.5080   -60.6011   -60.7561 C0            1 RES     
    2928 C0         106.1534   -59.7137   -61.9725 C0            1 RES     
    2929 C0         106.9321   -60.0120   -63.2726 C0            1 RES     
    2930 C0         108.4642   -59.9732   -63.1336 C0            1 RES     
    2931 C0         108.9882   -58.6245   -62.6089 C0            1 RES     
    2932 C0         110.5116   -58.6072   -62.4180 C0            1 RES     
    2933 C0         111.2889   -58.7044   -63.7416 C0            1 RES     
    2934 C0         112.8079   -58.5708   -63.5490 C0            1 RES     
    2935 C0         113.4185   -59.7265   -62.7555 C0            1 RES     
    2936 C0         105.7927   -62.5945   -58.4885 C0            1 RES     
    2937 C0         104.2475   -62.3864   -58.4459 C0            1 RES     
    2938 C0         103.6534   -63.3009   -57.3704 C0            1 RES     
    2939 C0         102.1423   -63.5140   -57.3656 C0            1 RES     
    2940 C0         101.3048   -62.4092   -56.7385 C0            1 RES     
    2941 C0          99.8269   -62.8492   -56.7968 C0            1 RES     
    2942 C0          98.8668   -61.9337   -56.0338 C0            1 RES     
    2943 C0          99.0789   -62.0027   -54.5200 C0            1 RES     
    2944 H6         105.1765   -64.3763   -60.8459 H6            1 RES     
    2945 H6         106.8720   -64.6273   -61.2075 H6            1 RES     
    2946 H6         107.5543   -63.0678   -59.5983 H6            1 RES     
    2947 H6         105.1196   -62.1424   -61.2942 H6            1 RES     
    2948 H6         106.7940   -62.4204   -61.8734 H6            1 RES     
    2949 H6         107.5757   -60.4805   -60.4816 H6            1 RES     
    2950 H6         105.8879   -60.2311   -59.9147 H6            1 RES     
    2951 H6         106.3234   -58.6547   -61.6880 H6            1 RES     
    2952 H6         105.0670   -59.8098   -62.1926 H6            1 RES     
    2953 H6         106.6197   -59.2688   -64.0398 H6            1 RES     
    2954 H6         106.6450   -61.0130   -63.6598 H6            1 RES     
    2955 H6         108.7906   -60.7864   -62.4516 H6            1 RES     
    2956 H6         108.8916   -60.1807   -64.1365 H6            1 RES     
    2957 H6         108.5493   -58.4347   -61.6083 H6            1 RES     
    2958 H6         108.6795   -57.7999   -63.2882 H6            1 RES     
    2959 H6         110.7774   -57.6438   -61.9308 H6            1 RES     
    2960 H6         110.7912   -59.4333   -61.7310 H6            1 RES     
    2961 H6         111.0770   -59.6637   -64.2577 H6            1 RES     
    2962 H6         110.9569   -57.8715   -64.3990 H6            1 RES     
    2963 H6         113.0408   -57.6076   -63.0446 H6            1 RES     
    2964 H6         113.2836   -58.5582   -64.5534 H6            1 RES     
    2965 H6         113.0218   -59.7609   -61.7208 H6            1 RES     
    2966 H6         113.2092   -60.6922   -63.2629 H6            1 RES     
    2967 H6         114.5184   -59.5890   -62.6937 H6            1 RES     
    2968 H6         106.2536   -61.6226   -58.2104 H6            1 RES     
    2969 H6         106.1318   -63.2636   -57.6688 H6            1 RES     
    2970 H6         103.9978   -61.3338   -58.1835 H6            1 RES     
    2971 H6         103.8054   -62.6093   -59.4382 H6            1 RES     
    2972 H6         104.0342   -63.0606   -56.3554 H6            1 RES     
    2973 H6         104.0309   -64.2660   -57.6339 H6            1 RES     
    2974 H6         101.8088   -63.7304   -58.3835 H6            1 RES     
    2975 H6         101.9572   -64.4294   -56.7587 H6            1 RES     
    2976 H6         101.6434   -62.2977   -55.6866 H6            1 RES     
    2977 H6         101.4409   -61.4442   -57.2710 H6            1 RES     
    2978 H6          99.5197   -62.8800   -57.8668 H6            1 RES     
    2979 H6          99.7101   -63.8774   -56.3848 H6            1 RES     
    2980 H6          97.8313   -62.2838   -56.2395 H6            1 RES     
    2981 H6          98.9626   -60.8881   -56.3950 H6            1 RES     
    2982 H6         100.0816   -61.6296   -54.2326 H6            1 RES     
    2983 H6          98.3173   -61.3781   -54.0105 H6            1 RES     
    2984 H6          98.9662   -63.0516   -54.1655 H6            1 RES     
    2985 C0         106.0779   -67.0936   -60.7116 C0            1 RES     
    2986 C0         105.6671   -66.9882   -62.2499 C0            1 RES     
    2987 C0         105.2750   -68.4350   -62.7031 C0            1 RES     
    2988 C0         105.0971   -68.6322   -64.2221 C0            1 RES     
    2989 C0         104.6891   -70.0617   -64.6199 C0            1 RES     
    2990 C0         105.6775   -71.1734   -64.2247 C0            1 RES     
    2991 C0         107.1239   -70.9621   -64.7021 C0            1 RES     
    2992 C0         107.2480   -70.8020   -66.2276 C0            1 RES     
    2993 C0         108.6988   -70.5865   -66.6878 C0            1 RES     
    2994 C0         109.5899   -71.8201   -66.4564 C0            1 RES     
    2995 C0         111.0064   -71.6531   -67.0283 C0            1 RES     
    2996 C0         111.8162   -70.5633   -66.3256 C0            1 RES     
    2997 C0         104.6796   -65.9085   -62.8630 C0            1 RES     
    2998 C0         103.1604   -65.9000   -62.5315 C0            1 RES     
    2999 C0         102.7738   -64.7507   -61.5834 C0            1 RES     
    3000 C0         101.3200   -64.6896   -61.1446 C0            1 RES     
    3001 C0         100.3034   -64.2382   -62.1838 C0            1 RES     
    3002 C0          98.9504   -64.0911   -61.4581 C0            1 RES     
    3003 C0          97.8323   -63.4942   -62.3147 C0            1 RES     
    3004 C0          98.0894   -62.0280   -62.6658 C0            1 RES     
    3005 H6         105.5148   -67.9378   -60.2498 H6            1 RES     
    3006 H6         107.1047   -67.5240   -60.7331 H6            1 RES     
    3007 H6         106.6239   -66.7301   -62.7598 H6            1 RES     
    3008 H6         104.3318   -68.7313   -62.1953 H6            1 RES     
    3009 H6         106.0770   -69.1255   -62.3641 H6            1 RES     
    3010 H6         106.0337   -68.3413   -64.7424 H6            1 RES     
    3011 H6         104.2736   -67.9952   -64.5990 H6            1 RES     
    3012 H6         104.5498   -70.0790   -65.7219 H6            1 RES     
    3013 H6         103.7011   -70.2992   -64.1678 H6            1 RES     
    3014 H6         105.2935   -72.1323   -64.6367 H6            1 RES     
    3015 H6         105.6912   -71.2755   -63.1186 H6            1 RES     
    3016 H6         107.5523   -70.0660   -64.2043 H6            1 RES     
    3017 H6         107.7026   -71.8460   -64.3647 H6            1 RES     
    3018 H6         106.6762   -69.9040   -66.5420 H6            1 RES     
    3019 H6         106.8174   -71.6869   -66.7442 H6            1 RES     
    3020 H6         108.6775   -70.3744   -67.7790 H6            1 RES     
    3021 H6         109.1111   -69.6955   -66.1683 H6            1 RES     
    3022 H6         109.6701   -72.0562   -65.3753 H6            1 RES     
    3023 H6         109.1196   -72.6868   -66.9701 H6            1 RES     
    3024 H6         110.9498   -71.4335   -68.1166 H6            1 RES     
    3025 H6         111.5452   -72.6162   -66.8974 H6            1 RES     
    3026 H6         111.3556   -69.5646   -66.4657 H6            1 RES     
    3027 H6         111.8960   -70.7842   -65.2399 H6            1 RES     
    3028 H6         112.8388   -70.5314   -66.7568 H6            1 RES     
    3029 H6         104.7384   -66.0658   -63.9557 H6            1 RES     
    3030 H6         105.0942   -64.8830   -62.8540 H6            1 RES     
    3031 H6         102.6103   -65.6769   -63.4722 H6            1 RES     
    3032 H6         102.8255   -66.8967   -62.1793 H6            1 RES     
    3033 H6         103.0787   -63.7726   -62.0200 H6            1 RES     
    3034 H6         103.2892   -64.8682   -60.6368 H6            1 RES     
    3035 H6         101.0231   -65.6566   -60.6835 H6            1 RES     
    3036 H6         101.2912   -63.8989   -60.3768 H6            1 RES     
    3037 H6         100.6402   -63.2586   -62.5841 H6            1 RES     
    3038 H6         100.2292   -64.9681   -63.0167 H6            1 RES     
    3039 H6          98.6355   -65.0992   -61.1090 H6            1 RES     
    3040 H6          99.0632   -63.4439   -60.5579 H6            1 RES     
    3041 H6          96.8979   -63.5337   -61.7128 H6            1 RES     
    3042 H6          97.6895   -64.0993   -63.2319 H6            1 RES     
    3043 H6          98.9888   -61.9156   -63.3032 H6            1 RES     
    3044 H6          97.2175   -61.6263   -63.2217 H6            1 RES     
    3045 H6          98.2221   -61.4277   -61.7390 H6            1 RES     
    3046 C0         118.7762   -65.8189   -56.6798 C0            1 RES     
    3047 C1         117.3025   -66.0271   -56.2666 C1            1 RES     
    3048 C1         117.1845   -66.7103   -55.0985 C1            1 RES     
    3049 S2         115.5991   -67.0334   -54.6689 S2            1 RES     
    3050 C1         114.9970   -66.2952   -56.0772 C1            1 RES     
    3051 C1         116.0488   -65.8107   -56.8625 C1            1 RES     
    3052 C1         118.4748   -67.0499   -54.6376 C1            1 RES     
    3053 C1         119.3980   -66.6387   -55.5483 C1            1 RES     
    3054 C1         120.6814   -67.0662   -55.2296 C1            1 RES     
    3055 C1         120.6780   -67.7833   -54.0212 C1            1 RES     
    3056 S2         119.1172   -67.9050   -53.3637 S2            1 RES     
    3057 H3         115.8754   -65.3782   -57.8295 H3            1 RES     
    3058 H3         121.5601   -66.8760   -55.8341 H3            1 RES     
    3059 N4         123.4017   -68.7403   -51.6304 N4            1 RES     
    3060 C1         122.3622   -68.0585   -52.1950 C1            1 RES     
    3061 C1         121.8179   -68.4701   -53.4239 C1            1 RES     
    3062 C1         122.3546   -69.6048   -54.0348 C1            1 RES     
    3063 N4         121.8850   -70.1405   -55.1906 N4            1 RES     
    3064 S2         122.8483   -71.4706   -55.3773 S2            1 RES     
    3065 N4         123.8526   -71.4186   -54.0632 N4            1 RES     
    3066 C1         123.4209   -70.3066   -53.4185 C1            1 RES     
    3067 C1         123.9446   -69.8458   -52.2134 C1            1 RES     
    3068 H5         121.9615   -67.1843   -51.6893 H5            1 RES     
    3069 C0         119.3942   -64.3768   -56.6458 C0            1 RES     
    3070 C0         119.7871   -63.4648   -55.4228 C0            1 RES     
    3071 C0         120.2291   -62.0990   -56.0567 C0            1 RES     
    3072 C0         120.7425   -61.0222   -55.0928 C0            1 RES     
    3073 C0         121.0998   -59.7052   -55.8211 C0            1 RES     
    3074 C0         122.2391   -59.7986   -56.8599 C0            1 RES     
    3075 C0         123.5609   -60.3745   -56.3219 C0            1 RES     
    3076 C0         124.1216   -59.5828   -55.1271 C0            1 RES     
    3077 C0         125.4105   -60.1919   -54.5569 C0            1 RES     
    3078 C0         126.6022   -60.1031   -55.5251 C0            1 RES     
    3079 C0         127.9123   -60.6107   -54.9020 C0            1 RES     
    3080 C0         127.8900   -62.1072   -54.5883 C0            1 RES     
    3081 C0         118.7726   -63.2662   -54.2495 C0            1 RES     
    3082 C0         117.4225   -62.5351   -54.5244 C0            1 RES     
    3083 C0         116.2676   -63.4793   -54.1774 C0            1 RES     
    3084 C0         114.8695   -63.1115   -54.6661 C0            1 RES     
    3085 C0         114.1205   -62.0671   -53.8514 C0            1 RES     
    3086 C0         112.7266   -61.8855   -54.4880 C0            1 RES     
    3087 C0         111.7729   -61.0067   -53.6753 C0            1 RES     
    3088 C0         111.3530   -61.6674   -52.3606 C0            1 RES     
    3089 H6         118.7527   -63.7646   -57.2266 H6            1 RES     
    3090 H6         120.3526   -64.4776   -57.2035 H6            1 RES     
    3091 H6         120.6758   -63.9367   -54.9474 H6            1 RES     
    3092 H6         119.3727   -61.6590   -56.6130 H6            1 RES     
    3093 H6         121.0332   -62.3123   -56.7932 H6            1 RES     
    3094 H6         121.6147   -61.4042   -54.5242 H6            1 RES     
    3095 H6         119.9408   -60.7664   -54.3709 H6            1 RES     
    3096 H6         121.3746   -58.9510   -55.0549 H6            1 RES     
    3097 H6         120.1951   -59.3141   -56.3372 H6            1 RES     
    3098 H6         122.4258   -58.7769   -57.2596 H6            1 RES     
    3099 H6         121.9129   -60.4243   -57.7181 H6            1 RES     
    3100 H6         123.4045   -61.4324   -56.0229 H6            1 RES     
    3101 H6         124.2900   -60.3635   -57.1585 H6            1 RES     
    3102 H6         123.3792   -59.6040   -54.3035 H6            1 RES     
    3103 H6         124.2952   -58.5225   -55.4140 H6            1 RES     
    3104 H6         125.6701   -59.6255   -53.6360 H6            1 RES     
    3105 H6         125.2075   -61.2456   -54.2717 H6            1 RES     
    3106 H6         126.4030   -60.6757   -56.4546 H6            1 RES     
    3107 H6         126.7483   -59.0346   -55.7958 H6            1 RES     
    3108 H6         128.1357   -60.0384   -53.9752 H6            1 RES     
    3109 H6         128.7338   -60.4268   -55.6276 H6            1 RES     
    3110 H6         127.1223   -62.3493   -53.8260 H6            1 RES     
    3111 H6         127.6882   -62.6892   -55.5126 H6            1 RES     
    3112 H6         128.8781   -62.4127   -54.1848 H6            1 RES     
    3113 H6         119.2902   -62.6917   -53.4518 H6            1 RES     
    3114 H6         118.6054   -64.2518   -53.7646 H6            1 RES     
    3115 H6         117.3299   -61.6251   -53.8901 H6            1 RES     
    3116 H6         117.3679   -62.2226   -55.5870 H6            1 RES     
    3117 H6         116.2624   -63.7622   -53.1036 H6            1 RES     
    3118 H6         116.4941   -64.3602   -54.7395 H6            1 RES     
    3119 H6         114.9231   -62.8242   -55.7191 H6            1 RES     
    3120 H6         114.2632   -64.0442   -54.6115 H6            1 RES     
    3121 H6         114.0347   -62.4585   -52.8156 H6            1 RES     
    3122 H6         114.6647   -61.0992   -53.8330 H6            1 RES     
    3123 H6         112.8654   -61.4296   -55.4945 H6            1 RES     
    3124 H6         112.2329   -62.8734   -54.6326 H6            1 RES     
    3125 H6         110.8516   -60.8587   -54.2807 H6            1 RES     
    3126 H6         112.2318   -60.0138   -53.4850 H6            1 RES     
    3127 H6         112.2180   -61.8120   -51.6838 H6            1 RES     
    3128 H6         110.6116   -61.0251   -51.8435 H6            1 RES     
    3129 H6         110.8809   -62.6549   -52.5625 H6            1 RES     
    3130 C0         118.9026   -66.4886   -58.1050 C0            1 RES     
    3131 C0         119.1629   -65.7152   -59.4762 C0            1 RES     
    3132 C0         118.6702   -66.6646   -60.6199 C0            1 RES     
    3133 C0         119.0636   -66.2446   -62.0506 C0            1 RES     
    3134 C0         118.5388   -67.1925   -63.1433 C0            1 RES     
    3135 C0         119.0198   -68.6516   -63.0502 C0            1 RES     
    3136 C0         120.5451   -68.8338   -62.9820 C0            1 RES     
    3137 C0         121.2899   -68.2136   -64.1773 C0            1 RES     
    3138 C0         122.8135   -68.3999   -64.0915 C0            1 RES     
    3139 C0         123.2449   -69.8719   -64.2185 C0            1 RES     
    3140 C0         124.7708   -70.0488   -64.2588 C0            1 RES     
    3141 C0         125.4594   -69.6471   -62.9544 C0            1 RES     
    3142 C0         118.7611   -64.2087   -59.7694 C0            1 RES     
    3143 C0         117.2766   -63.7594   -59.8816 C0            1 RES     
    3144 C0         116.8141   -62.9528   -58.6550 C0            1 RES     
    3145 C0         115.3577   -62.5190   -58.6347 C0            1 RES     
    3146 C0         114.9579   -61.3974   -59.5830 C0            1 RES     
    3147 C0         113.4979   -61.0256   -59.2528 C0            1 RES     
    3148 C0         112.9681   -59.8042   -60.0062 C0            1 RES     
    3149 C0         113.6602   -58.5104   -59.5747 C0            1 RES     
    3150 H6         118.0317   -67.1713   -58.2411 H6            1 RES     
    3151 H6         119.7324   -67.2291   -58.0487 H6            1 RES     
    3152 H6         120.2743   -65.6664   -59.5431 H6            1 RES     
    3153 H6         117.5633   -66.7507   -60.5686 H6            1 RES     
    3154 H6         119.1001   -67.6721   -60.4330 H6            1 RES     
    3155 H6         120.1684   -66.1566   -62.1167 H6            1 RES     
    3156 H6         118.6175   -65.2623   -62.2996 H6            1 RES     
    3157 H6         118.8430   -66.7754   -64.1271 H6            1 RES     
    3158 H6         117.4267   -67.1920   -63.1247 H6            1 RES     
    3159 H6         118.6262   -69.1967   -63.9359 H6            1 RES     
    3160 H6         118.5753   -69.1272   -62.1499 H6            1 RES     
    3161 H6         120.9308   -68.3888   -62.0399 H6            1 RES     
    3162 H6         120.7335   -69.9261   -62.9425 H6            1 RES     
    3163 H6         121.1018   -67.1196   -64.1890 H6            1 RES     
    3164 H6         120.9122   -68.6416   -65.1309 H6            1 RES     
    3165 H6         123.2696   -67.8315   -64.9312 H6            1 RES     
    3166 H6         123.1750   -67.9608   -63.1374 H6            1 RES     
    3167 H6         122.8400   -70.4790   -63.3828 H6            1 RES     
    3168 H6         122.8345   -70.2707   -65.1719 H6            1 RES     
    3169 H6         125.1960   -69.4622   -65.1019 H6            1 RES     
    3170 H6         124.9870   -71.1235   -64.4416 H6            1 RES     
    3171 H6         125.3245   -68.5672   -62.7428 H6            1 RES     
    3172 H6         125.0558   -70.2426   -62.1079 H6            1 RES     
    3173 H6         126.5486   -69.8451   -63.0392 H6            1 RES     
    3174 H6         119.2075   -63.9884   -60.7565 H6            1 RES     
    3175 H6         119.3549   -63.4778   -59.1890 H6            1 RES     
    3176 H6         117.2041   -63.0399   -60.7268 H6            1 RES     
    3177 H6         116.6187   -64.6195   -60.1202 H6            1 RES     
    3178 H6         117.4744   -62.0686   -58.5045 H6            1 RES     
    3179 H6         116.8768   -63.5704   -57.7660 H6            1 RES     
    3180 H6         114.6975   -63.4051   -58.7571 H6            1 RES     
    3181 H6         115.2059   -62.0910   -57.6301 H6            1 RES     
    3182 H6         115.6327   -60.5362   -59.3926 H6            1 RES     
    3183 H6         115.0568   -61.7128   -60.6425 H6            1 RES     
    3184 H6         112.8565   -61.9017   -59.4939 H6            1 RES     
    3185 H6         113.3888   -60.8191   -58.1631 H6            1 RES     
    3186 H6         111.8890   -59.7041   -59.7561 H6            1 RES     
    3187 H6         113.0665   -59.9574   -61.0992 H6            1 RES     
    3188 H6         114.7382   -58.5223   -59.8311 H6            1 RES     
    3189 H6         113.1890   -57.6517   -60.0955 H6            1 RES     
    3190 H6         113.5481   -58.3608   -58.4783 H6            1 RES     
    3191 C0         128.9392   -71.4336   -50.7604 C0            1 RES     
    3192 C1         127.4153   -71.2164   -50.8890 C1            1 RES     
    3193 C1         126.7002   -72.1672   -50.2335 C1            1 RES     
    3194 S2         125.0448   -72.0141   -50.4294 S2            1 RES     
    3195 C1         125.2234   -70.6689   -51.4538 C1            1 RES     
    3196 C1         126.5779   -70.3642   -51.6279 C1            1 RES     
    3197 C1         127.5960   -73.0927   -49.6558 C1            1 RES     
    3198 C1         128.8687   -72.7609   -50.0037 C1            1 RES     
    3199 C1         129.7945   -73.7105   -49.5888 C1            1 RES     
    3200 C1         129.1586   -74.7466   -48.8842 C1            1 RES     
    3201 S2         127.4802   -74.5072   -48.7882 S2            1 RES     
    3202 H3         126.8983   -69.5927   -52.3020 H3            1 RES     
    3203 H3         130.8584   -73.6591   -49.7874 H3            1 RES     
    3204 N4         130.4400   -77.3977   -46.5648 N4            1 RES     
    3205 C1         129.8846   -76.2327   -47.0103 C1            1 RES     
    3206 C1         129.7896   -75.9639   -48.3867 C1            1 RES     
    3207 C1         130.2571   -76.9295   -49.2799 C1            1 RES     
    3208 N4         130.1727   -76.8206   -50.6307 N4            1 RES     
    3209 S2         130.8111   -78.2580   -51.1388 S2            1 RES     
    3210 N4         131.2036   -79.0354   -49.7317 N4            1 RES     
    3211 C1         130.8116   -78.1395   -48.7924 C1            1 RES     
    3212 C1         130.9084   -78.3500   -47.4194 C1            1 RES     
    3213 H5         129.5220   -75.5056   -46.2888 H5            1 RES     
    3214 C0         129.7970   -70.4260   -49.9169 C0            1 RES     
    3215 C0         129.8699   -70.2050   -48.3587 C0            1 RES     
    3216 C0         130.8158   -68.9679   -48.1652 C0            1 RES     
    3217 C0         131.1345   -68.5591   -46.7218 C0            1 RES     
    3218 C0         132.0311   -67.3005   -46.6529 C0            1 RES     
    3219 C0         133.4351   -67.4394   -47.2818 C0            1 RES     
    3220 C0         134.2764   -68.6071   -46.7369 C0            1 RES     
    3221 C0         134.4835   -68.5417   -45.2133 C0            1 RES     
    3222 C0         135.2754   -69.7373   -44.6647 C0            1 RES     
    3223 C0         136.7389   -69.7624   -45.1371 C0            1 RES     
    3224 C0         137.5515   -70.8963   -44.4920 C0            1 RES     
    3225 C0         137.0769   -72.2893   -44.9075 C0            1 RES     
    3226 C0         128.5479   -70.0674   -47.5351 C0            1 RES     
    3227 C0         127.6125   -68.8462   -47.7928 C0            1 RES     
    3228 C0         126.2361   -69.3588   -48.2272 C0            1 RES     
    3229 C0         125.2613   -68.3598   -48.8441 C0            1 RES     
    3230 C0         124.5044   -67.4649   -47.8737 C0            1 RES     
    3231 C0         123.5499   -66.5773   -48.6998 C0            1 RES     
    3232 C0         122.5744   -65.7497   -47.8598 C0            1 RES     
    3233 C0         121.5373   -66.6212   -47.1483 C0            1 RES     
    3234 H6         129.5879   -69.4613   -50.3033 H6            1 RES     
    3235 H6         130.8491   -70.6714   -50.1864 H6            1 RES     
    3236 H6         130.3723   -71.1026   -47.9339 H6            1 RES     
    3237 H6         130.3670   -68.0817   -48.6650 H6            1 RES     
    3238 H6         131.7754   -69.1921   -48.6785 H6            1 RES     
    3239 H6         131.6054   -69.4052   -46.1811 H6            1 RES     
    3240 H6         130.1923   -68.2940   -46.2010 H6            1 RES     
    3241 H6         132.1429   -67.0146   -45.5866 H6            1 RES     
    3242 H6         131.5126   -66.4527   -47.1533 H6            1 RES     
    3243 H6         133.9849   -66.4870   -47.1112 H6            1 RES     
    3244 H6         133.3420   -67.5636   -48.3819 H6            1 RES     
    3245 H6         133.7850   -69.5671   -47.0017 H6            1 RES     
    3246 H6         135.2579   -68.5755   -47.2538 H6            1 RES     
    3247 H6         133.4929   -68.5729   -44.7156 H6            1 RES     
    3248 H6         134.9860   -67.5902   -44.9326 H6            1 RES     
    3249 H6         135.2713   -69.6615   -43.5555 H6            1 RES     
    3250 H6         134.7489   -70.6717   -44.9516 H6            1 RES     
    3251 H6         136.7989   -69.8627   -46.2407 H6            1 RES     
    3252 H6         137.2122   -68.7993   -44.8461 H6            1 RES     
    3253 H6         137.5141   -70.8042   -43.3845 H6            1 RES     
    3254 H6         138.6103   -70.7875   -44.8117 H6            1 RES     
    3255 H6         136.0388   -72.4807   -44.5687 H6            1 RES     
    3256 H6         137.1305   -72.3986   -46.0115 H6            1 RES     
    3257 H6         137.7330   -73.0547   -44.4426 H6            1 RES     
    3258 H6         128.8243   -70.0366   -46.4594 H6            1 RES     
    3259 H6         127.9900   -71.0253   -47.6115 H6            1 RES     
    3260 H6         127.4825   -68.2455   -46.8647 H6            1 RES     
    3261 H6         128.0499   -68.1888   -48.5714 H6            1 RES     
    3262 H6         125.7475   -69.9725   -47.4413 H6            1 RES     
    3263 H6         126.4638   -70.0083   -49.0454 H6            1 RES     
    3264 H6         125.7860   -67.7672   -49.5976 H6            1 RES     
    3265 H6         124.4919   -68.9623   -49.3786 H6            1 RES     
    3266 H6         123.9346   -68.1297   -47.1904 H6            1 RES     
    3267 H6         125.1974   -66.8345   -47.2774 H6            1 RES     
    3268 H6         124.1698   -65.8863   -49.3151 H6            1 RES     
    3269 H6         122.9471   -67.1998   -49.3996 H6            1 RES     
    3270 H6         122.0223   -65.0750   -48.5505 H6            1 RES     
    3271 H6         123.1294   -65.1259   -47.1279 H6            1 RES     
    3272 H6         122.0119   -67.2970   -46.4098 H6            1 RES     
    3273 H6         120.8149   -65.9735   -46.6114 H6            1 RES     
    3274 H6         120.9763   -67.2315   -47.8910 H6            1 RES     
    3275 C0         129.4629   -71.5657   -52.2450 C0            1 RES     
    3276 C0         130.4046   -70.5188   -52.9955 C0            1 RES     
    3277 C0         130.2031   -70.7630   -54.5292 C0            1 RES     
    3278 C0         131.2088   -70.0497   -55.4553 C0            1 RES     
    3279 C0         130.9590   -70.2984   -56.9533 C0            1 RES     
    3280 C0         131.0286   -71.7673   -57.4078 C0            1 RES     
    3281 C0         132.3232   -72.5071   -57.0320 C0            1 RES     
    3282 C0         133.5945   -71.8309   -57.5747 C0            1 RES     
    3283 C0         134.8797   -72.5796   -57.1862 C0            1 RES     
    3284 C0         134.9885   -73.9653   -57.8473 C0            1 RES     
    3285 C0         136.3273   -74.6633   -57.5613 C0            1 RES     
    3286 C0         136.5193   -75.0196   -56.0871 C0            1 RES     
    3287 C0         130.4947   -68.9688   -52.6693 C0            1 RES     
    3288 C0         129.3131   -67.9981   -52.9511 C0            1 RES     
    3289 C0         128.5976   -67.5560   -51.6620 C0            1 RES     
    3290 C0         127.3855   -66.6547   -51.8306 C0            1 RES     
    3291 C0         127.6492   -65.2114   -52.2363 C0            1 RES     
    3292 C0         126.2986   -64.4695   -52.1697 C0            1 RES     
    3293 C0         126.3919   -62.9598   -52.3982 C0            1 RES     
    3294 C0         127.1271   -62.2450   -51.2635 C0            1 RES     
    3295 H6         128.5875   -71.7893   -52.8983 H6            1 RES     
    3296 H6         130.0174   -72.5288   -52.3143 H6            1 RES     
    3297 H6         131.4338   -70.8607   -52.7389 H6            1 RES     
    3298 H6         129.1758   -70.4495   -54.8148 H6            1 RES     
    3299 H6         130.2904   -71.8555   -54.7129 H6            1 RES     
    3300 H6         132.2405   -70.3555   -55.1820 H6            1 RES     
    3301 H6         131.1259   -68.9515   -55.3403 H6            1 RES     
    3302 H6         131.7090   -69.7094   -57.5232 H6            1 RES     
    3303 H6         129.9590   -69.8970   -57.2289 H6            1 RES     
    3304 H6         130.9040   -71.7878   -58.5126 H6            1 RES     
    3305 H6         130.1732   -72.3265   -56.9723 H6            1 RES     
    3306 H6         132.3964   -72.5897   -55.9265 H6            1 RES     
    3307 H6         132.2339   -73.5333   -57.4430 H6            1 RES     
    3308 H6         133.6735   -70.8129   -57.1392 H6            1 RES     
    3309 H6         133.5366   -71.7325   -58.6804 H6            1 RES     
    3310 H6         135.7422   -71.9654   -57.5251 H6            1 RES     
    3311 H6         134.9254   -72.6627   -56.0795 H6            1 RES     
    3312 H6         134.1646   -74.6304   -57.5159 H6            1 RES     
    3313 H6         134.9079   -73.8299   -58.9480 H6            1 RES     
    3314 H6         137.1677   -74.0208   -57.9030 H6            1 RES     
    3315 H6         136.3540   -75.6077   -58.1466 H6            1 RES     
    3316 H6         136.5551   -74.1105   -55.4536 H6            1 RES     
    3317 H6         135.6949   -75.6787   -55.7410 H6            1 RES     
    3318 H6         137.4810   -75.5603   -55.9632 H6            1 RES     
    3319 H6         131.3293   -68.6008   -53.2938 H6            1 RES     
    3320 H6         130.9590   -68.7557   -51.6881 H6            1 RES     
    3321 H6         129.7394   -67.0578   -53.3650 H6            1 RES     
    3322 H6         128.6288   -68.4176   -53.7162 H6            1 RES     
    3323 H6         129.3239   -67.0861   -50.9605 H6            1 RES     
    3324 H6         128.1679   -68.4199   -51.1673 H6            1 RES     
    3325 H6         126.6479   -67.1359   -52.5090 H6            1 RES     
    3326 H6         126.9507   -66.5767   -50.8205 H6            1 RES     
    3327 H6         128.3677   -64.7805   -51.5073 H6            1 RES     
    3328 H6         128.0834   -65.1538   -53.2561 H6            1 RES     
    3329 H6         125.6265   -64.9081   -52.9398 H6            1 RES     
    3330 H6         125.8194   -64.6279   -51.1761 H6            1 RES     
    3331 H6         125.3527   -62.5645   -52.4229 H6            1 RES     
    3332 H6         126.8747   -62.7504   -53.3734 H6            1 RES     
    3333 H6         128.1874   -62.5615   -51.2047 H6            1 RES     
    3334 H6         127.1010   -61.1505   -51.4426 H6            1 RES     
    3335 H6         126.6300   -62.4537   -50.2908 H6            1 RES     
    3336 C0         134.4453   -82.0538   -45.5890 C0            1 RES     
    3337 C1         133.1835   -81.2635   -46.0001 C1            1 RES     
    3338 C1         132.0772   -82.0495   -46.0592 C1            1 RES     
    3339 S2         130.7102   -81.2430   -46.5912 S2            1 RES     
    3340 C1         131.5697   -79.7922   -46.8088 C1            1 RES     
    3341 C1         132.9146   -79.9650   -46.4641 C1            1 RES     
    3342 C1         132.4452   -83.3769   -45.7504 C1            1 RES     
    3343 C1         133.7914   -83.4362   -45.5630 C1            1 RES     
    3344 C1         134.2447   -84.7392   -45.3961 C1            1 RES     
    3345 C1         133.1710   -85.6448   -45.4311 C1            1 RES     
    3346 S2         131.6880   -84.8563   -45.6813 S2            1 RES     
    3347 H3         133.6361   -79.1828   -46.6055 H3            1 RES     
    3348 H3         135.2838   -85.0158   -45.2630 H3            1 RES     
    3349 N4         132.8174   -89.2064   -44.3174 N4            1 RES     
    3350 C1         132.7545   -87.8425   -44.3158 C1            1 RES     
    3351 C1         133.2694   -87.0996   -45.3922 C1            1 RES     
    3352 C1         133.8233   -87.7962   -46.4678 C1            1 RES     
    3353 N4         134.3021   -87.2042   -47.5920 N4            1 RES     
    3354 S2         134.7529   -88.5040   -48.5079 S2            1 RES     
    3355 N4         134.3790   -89.8059   -47.5573 N4            1 RES     
    3356 C1         133.8589   -89.2132   -46.4542 C1            1 RES     
    3357 C1         133.3600   -89.9051   -45.3538 C1            1 RES     
    3358 H5         132.3089   -87.3310   -43.4670 H5            1 RES     
    3359 C0         135.1033   -81.7894   -44.1891 C0            1 RES     
    3360 C0         134.6060   -82.1638   -42.7419 C0            1 RES     
    3361 C0         135.6486   -81.5087   -41.7691 C0            1 RES     
    3362 C0         135.4573   -81.7714   -40.2702 C0            1 RES     
    3363 C0         136.5096   -81.0364   -39.4069 C0            1 RES     
    3364 C0         137.9789   -81.4533   -39.6374 C0            1 RES     
    3365 C0         138.2574   -82.9586   -39.4806 C0            1 RES     
    3366 C0         137.8590   -83.5048   -38.0981 C0            1 RES     
    3367 C0         138.0858   -85.0175   -37.9636 C0            1 RES     
    3368 C0         139.5721   -85.4119   -37.9937 C0            1 RES     
    3369 C0         139.7932   -86.9123   -37.7436 C0            1 RES     
    3370 C0         139.2239   -87.7981   -38.8525 C0            1 RES     
    3371 C0         133.1331   -81.8455   -42.3245 C0            1 RES     
    3372 C0         132.6698   -80.3588   -42.2370 C0            1 RES     
    3373 C0         131.4978   -80.1471   -43.2002 C0            1 RES     
    3374 C0         131.0910   -78.7137   -43.5299 C0            1 RES     
    3375 C0         130.2328   -77.9988   -42.4964 C0            1 RES     
    3376 C0         129.9016   -76.5968   -43.0494 C0            1 RES     
    3377 C0         128.8844   -75.8150   -42.2150 C0            1 RES     
    3378 C0         127.4863   -76.4338   -42.2749 C0            1 RES     
    3379 H6         135.2820   -80.7458   -44.1369 H6            1 RES     
    3380 H6         136.0940   -82.2936   -44.2538 H6            1 RES     
    3381 H6         134.6889   -83.2702   -42.6541 H6            1 RES     
    3382 H6         135.6404   -80.4059   -41.9119 H6            1 RES     
    3383 H6         136.6569   -81.8764   -42.0563 H6            1 RES     
    3384 H6         135.4781   -82.8617   -40.0686 H6            1 RES     
    3385 H6         134.4705   -81.3772   -39.9537 H6            1 RES     
    3386 H6         136.2543   -81.1990   -38.3394 H6            1 RES     
    3387 H6         136.4308   -79.9411   -39.5859 H6            1 RES     
    3388 H6         138.6138   -80.8910   -38.9169 H6            1 RES     
    3389 H6         138.2999   -81.1462   -40.6557 H6            1 RES     
    3390 H6         137.7100   -83.5163   -40.2695 H6            1 RES     
    3391 H6         139.3435   -83.1122   -39.6494 H6            1 RES     
    3392 H6         136.7724   -83.3409   -37.9478 H6            1 RES     
    3393 H6         138.4082   -82.9640   -37.2965 H6            1 RES     
    3394 H6         137.6637   -85.3340   -36.9849 H6            1 RES     
    3395 H6         137.5213   -85.5325   -38.7690 H6            1 RES     
    3396 H6         140.0364   -85.1390   -38.9639 H6            1 RES     
    3397 H6         140.0938   -84.8540   -37.1857 H6            1 RES     
    3398 H6         139.3456   -87.2019   -36.7678 H6            1 RES     
    3399 H6         140.8879   -87.0956   -37.6891 H6            1 RES     
    3400 H6         138.1218   -87.7002   -38.9226 H6            1 RES     
    3401 H6         139.6807   -87.5304   -39.8289 H6            1 RES     
    3402 H6         139.4576   -88.8603   -38.6304 H6            1 RES     
    3403 H6         132.9646   -82.2921   -41.3212 H6            1 RES     
    3404 H6         132.4529   -82.4421   -42.9693 H6            1 RES     
    3405 H6         132.3227   -80.1131   -41.2083 H6            1 RES     
    3406 H6         133.5114   -79.6819   -42.4885 H6            1 RES     
    3407 H6         130.6174   -80.7700   -42.9362 H6            1 RES     
    3408 H6         131.8783   -80.5087   -44.1318 H6            1 RES     
    3409 H6         131.9864   -78.1335   -43.7664 H6            1 RES     
    3410 H6         130.4805   -78.7675   -44.4598 H6            1 RES     
    3411 H6         129.3088   -78.6006   -42.3644 H6            1 RES     
    3412 H6         130.7572   -77.9144   -41.5212 H6            1 RES     
    3413 H6         130.8494   -76.0142   -43.0986 H6            1 RES     
    3414 H6         129.5000   -76.6717   -44.0857 H6            1 RES     
    3415 H6         128.8120   -74.7910   -42.6432 H6            1 RES     
    3416 H6         129.2310   -75.7324   -41.1633 H6            1 RES     
    3417 H6         127.4706   -77.4468   -41.8267 H6            1 RES     
    3418 H6         126.7743   -75.7952   -41.7138 H6            1 RES     
    3419 H6         127.1417   -76.4987   -43.3312 H6            1 RES     
    3420 C0         135.4661   -81.8465   -46.7767 C0            1 RES     
    3421 C0         136.8332   -81.0276   -46.6958 C0            1 RES     
    3422 C0         137.2010   -80.6345   -48.1663 C0            1 RES     
    3423 C0         138.6202   -80.0665   -48.3691 C0            1 RES     
    3424 C0         138.9299   -79.6719   -49.8240 C0            1 RES     
    3425 C0         138.8449   -80.8091   -50.8577 C0            1 RES     
    3426 C0         139.6893   -82.0525   -50.5324 C0            1 RES     
    3427 C0         141.1870   -81.7464   -50.3555 C0            1 RES     
    3428 C0         142.0159   -82.9984   -50.0259 C0            1 RES     
    3429 C0         142.0655   -84.0067   -51.1878 C0            1 RES     
    3430 C0         142.9938   -85.1990   -50.9086 C0            1 RES     
    3431 C0         142.5078   -86.0868   -49.7629 C0            1 RES     
    3432 C0         137.1290   -79.8345   -45.6928 C0            1 RES     
    3433 C0         136.3998   -78.4656   -45.8039 C0            1 RES     
    3434 C0         135.3532   -78.2673   -44.6927 C0            1 RES     
    3435 C0         134.5370   -76.9864   -44.7467 C0            1 RES     
    3436 C0         135.2514   -75.6959   -44.3703 C0            1 RES     
    3437 C0         134.1839   -74.5833   -44.3322 C0            1 RES     
    3438 C0         134.6913   -73.2343   -43.8196 C0            1 RES     
    3439 C0         135.0608   -73.2784   -42.3361 C0            1 RES     
    3440 H6         134.8914   -81.4931   -47.6644 H6            1 RES     
    3441 H6         135.7749   -82.8577   -47.1260 H6            1 RES     
    3442 H6         137.5755   -81.7888   -46.3617 H6            1 RES     
    3443 H6         136.4654   -79.8886   -48.5374 H6            1 RES     
    3444 H6         137.1089   -81.5467   -48.7942 H6            1 RES     
    3445 H6         139.3662   -80.8031   -48.0039 H6            1 RES     
    3446 H6         138.7444   -79.1273   -47.7960 H6            1 RES     
    3447 H6         139.9536   -79.2408   -49.8465 H6            1 RES     
    3448 H6         138.2343   -78.8635   -50.1396 H6            1 RES     
    3449 H6         139.1627   -80.3992   -51.8413 H6            1 RES     
    3450 H6         137.7865   -81.1295   -50.9639 H6            1 RES     
    3451 H6         139.3026   -82.5329   -49.6083 H6            1 RES     
    3452 H6         139.5435   -82.7641   -51.3705 H6            1 RES     
    3453 H6         141.3121   -81.0466   -49.5030 H6            1 RES     
    3454 H6         141.5909   -81.2580   -51.2686 H6            1 RES     
    3455 H6         143.0550   -82.6666   -49.8107 H6            1 RES     
    3456 H6         141.6041   -83.4695   -49.1083 H6            1 RES     
    3457 H6         141.0526   -84.3940   -51.4224 H6            1 RES     
    3458 H6         142.4554   -83.4796   -52.0858 H6            1 RES     
    3459 H6         144.0205   -84.8337   -50.6886 H6            1 RES     
    3460 H6         143.0380   -85.8223   -51.8277 H6            1 RES     
    3461 H6         142.4926   -85.5337   -48.8022 H6            1 RES     
    3462 H6         141.4900   -86.4739   -49.9823 H6            1 RES     
    3463 H6         143.1980   -86.9492   -49.6496 H6            1 RES     
    3464 H6         138.2007   -79.6064   -45.8397 H6            1 RES     
    3465 H6         137.2058   -80.1598   -44.6383 H6            1 RES     
    3466 H6         137.1511   -77.6664   -45.6194 H6            1 RES     
    3467 H6         135.9962   -78.3128   -46.8253 H6            1 RES     
    3468 H6         135.8304   -78.3699   -43.6917 H6            1 RES     
    3469 H6         134.5841   -79.0271   -44.7747 H6            1 RES     
    3470 H6         134.0380   -76.8973   -45.7361 H6            1 RES     
    3471 H6         133.7698   -77.1089   -43.9645 H6            1 RES     
    3472 H6         135.7022   -75.8390   -43.3656 H6            1 RES     
    3473 H6         136.0519   -75.4526   -45.0996 H6            1 RES     
    3474 H6         133.7889   -74.4496   -45.3634 H6            1 RES     
    3475 H6         133.3311   -74.8881   -43.6828 H6            1 RES     
    3476 H6         133.8608   -72.5035   -43.9344 H6            1 RES     
    3477 H6         135.5513   -72.8930   -44.4293 H6            1 RES     
    3478 H6         135.9142   -73.9606   -42.1511 H6            1 RES     
    3479 H6         135.3503   -72.2615   -42.0004 H6            1 RES     
    3480 H6         134.1891   -73.6130   -41.7319 H6            1 RES     
    3481 C0         134.9786   -95.0333   -44.5414 C0            1 RES     
    3482 C1         134.1886   -93.7462   -44.8652 C1            1 RES     
    3483 C1         133.0500   -93.9995   -45.5614 C1            1 RES     
    3484 S2         132.2171   -92.6180   -46.0086 S2            1 RES     
    3485 C1         133.3912   -91.6044   -45.3123 C1            1 RES     
    3486 C1         134.4183   -92.3656   -44.7438 C1            1 RES     
    3487 C1         132.9633   -95.3877   -45.8023 C1            1 RES     
    3488 C1         134.0784   -95.9969   -45.3162 C1            1 RES     
    3489 C1         134.1289   -97.3463   -45.6444 C1            1 RES     
    3490 C1         132.9834   -97.7231   -46.3657 C1            1 RES     
    3491 S2         131.9325   -96.4122   -46.6113 S2            1 RES     
    3492 H3         135.2912   -91.9053   -44.3212 H3            1 RES     
    3493 H3         134.9430   -98.0120   -45.3836 H3            1 RES     
    3494 N4         131.4417  -101.0554   -47.1205 N4            1 RES     
    3495 C1         131.6871   -99.8547   -46.5186 C1            1 RES     
    3496 C1         132.7337   -99.0294   -46.9650 C1            1 RES     
    3497 C1         133.4959   -99.4621   -48.0515 C1            1 RES     
    3498 N4         134.4956   -98.7375   -48.6163 N4            1 RES     
    3499 S2         134.9695   -99.7088   -49.8667 S2            1 RES     
    3500 N4         133.9742  -101.0251   -49.7436 N4            1 RES     
    3501 C1         133.2085  -100.7040   -48.6717 C1            1 RES     
    3502 C1         132.1779  -101.4994   -48.1777 C1            1 RES     
    3503 H5         131.0696   -99.5431   -45.6806 H5            1 RES     
    3504 C0         135.0754   -95.5300   -43.0559 C0            1 RES     
    3505 C0         133.9806   -96.1717   -42.1223 C0            1 RES     
    3506 C0         134.6748   -96.3240   -40.7232 C0            1 RES     
    3507 C0         133.8577   -96.9991   -39.6147 C0            1 RES     
    3508 C0         134.6212   -97.0482   -38.2702 C0            1 RES     
    3509 C0         135.9309   -97.8669   -38.2699 C0            1 RES     
    3510 C0         135.7845   -99.3236   -38.7442 C0            1 RES     
    3511 C0         134.7653  -100.1275   -37.9174 C0            1 RES     
    3512 C0         134.5799  -101.5637   -38.4276 C0            1 RES     
    3513 C0         135.8312  -102.4386   -38.2418 C0            1 RES     
    3514 C0         135.5980  -103.9021   -38.6494 C0            1 RES     
    3515 C0         135.3287  -104.0754   -40.1446 C0            1 RES     
    3516 C0         132.5724   -95.5014   -42.0089 C0            1 RES     
    3517 C0         132.4539   -94.0776   -41.3833 C0            1 RES     
    3518 C0         131.8325   -93.1323   -42.4159 C0            1 RES     
    3519 C0         131.9163   -91.6310   -42.1551 C0            1 RES     
    3520 C0         130.9030   -91.0564   -41.1760 C0            1 RES     
    3521 C0         131.1349   -89.5327   -41.1000 C0            1 RES     
    3522 C0         130.0727   -88.7733   -40.3019 C0            1 RES     
    3523 C0         128.7109   -88.7749   -40.9997 C0            1 RES     
    3524 H6         135.4456   -94.7120   -42.4924 H6            1 RES     
    3525 H6         135.8734   -96.3061   -43.0793 H6            1 RES     
    3526 H6         133.7750   -97.1881   -42.5262 H6            1 RES     
    3527 H6         134.9678   -95.3190   -40.3482 H6            1 RES     
    3528 H6         135.6062   -96.9118   -40.8698 H6            1 RES     
    3529 H6         133.5555   -98.0183   -39.9307 H6            1 RES     
    3530 H6         132.9399   -96.4066   -39.4254 H6            1 RES     
    3531 H6         133.9384   -97.4643   -37.5009 H6            1 RES     
    3532 H6         134.8637   -96.0113   -37.9479 H6            1 RES     
    3533 H6         136.3396   -97.8629   -37.2348 H6            1 RES     
    3534 H6         136.6851   -97.3671   -38.9146 H6            1 RES     
    3535 H6         135.4818   -99.3320   -39.8125 H6            1 RES     
    3536 H6         136.7863   -99.7958   -38.6725 H6            1 RES     
    3537 H6         133.7727   -99.6397   -38.0002 H6            1 RES     
    3538 H6         135.0610  -100.1387   -36.8454 H6            1 RES     
    3539 H6         133.7490  -102.0209   -37.8474 H6            1 RES     
    3540 H6         134.2779  -101.5234   -39.4952 H6            1 RES     
    3541 H6         136.6869  -102.0375   -38.8235 H6            1 RES     
    3542 H6         136.1035  -102.4272   -37.1639 H6            1 RES     
    3543 H6         134.7514  -104.3257   -38.0661 H6            1 RES     
    3544 H6         136.5134  -104.4804   -38.3987 H6            1 RES     
    3545 H6         134.3940  -103.5629   -40.4493 H6            1 RES     
    3546 H6         136.1789  -103.6739   -40.7359 H6            1 RES     
    3547 H6         135.2148  -105.1555   -40.3746 H6            1 RES     
    3548 H6         131.9294   -96.1723   -41.3999 H6            1 RES     
    3549 H6         132.0860   -95.5446   -43.0069 H6            1 RES     
    3550 H6         131.7948   -94.0938   -40.4864 H6            1 RES     
    3551 H6         133.4539   -93.7142   -41.0706 H6            1 RES     
    3552 H6         130.8049   -93.4391   -42.7037 H6            1 RES     
    3553 H6         132.4575   -93.2620   -43.2737 H6            1 RES     
    3554 H6         132.9369   -91.3761   -41.8594 H6            1 RES     
    3555 H6         131.7242   -91.1323   -43.1323 H6            1 RES     
    3556 H6         129.8929   -91.2835   -41.5782 H6            1 RES     
    3557 H6         131.0072   -91.5128   -40.1690 H6            1 RES     
    3558 H6         132.1294   -89.3598   -40.6296 H6            1 RES     
    3559 H6         131.1664   -89.0921   -42.1224 H6            1 RES     
    3560 H6         130.4030   -87.7141   -40.2227 H6            1 RES     
    3561 H6         129.9877   -89.1925   -39.2773 H6            1 RES     
    3562 H6         128.2966   -89.7992   -41.0801 H6            1 RES     
    3563 H6         127.9966   -88.1564   -40.4193 H6            1 RES     
    3564 H6         128.8034   -88.3395   -42.0198 H6            1 RES     
    3565 C0         136.4018   -94.8175   -45.1921 C0            1 RES     
    3566 C0         137.7720   -94.6390   -44.3940 C0            1 RES     
    3567 C0         138.7644   -93.9257   -45.3731 C0            1 RES     
    3568 C0         140.2368   -93.8849   -44.9166 C0            1 RES     
    3569 C0         141.1716   -93.1545   -45.8969 C0            1 RES     
    3570 C0         141.2493   -93.7483   -47.3147 C0            1 RES     
    3571 C0         141.6000   -95.2441   -47.3785 C0            1 RES     
    3572 C0         142.9355   -95.5896   -46.6963 C0            1 RES     
    3573 C0         143.2688   -97.0888   -46.7644 C0            1 RES     
    3574 C0         143.5455   -97.5763   -48.1979 C0            1 RES     
    3575 C0         144.0005   -99.0428   -48.2558 C0            1 RES     
    3576 C0         142.9204  -100.0279   -47.8084 C0            1 RES     
    3577 C0         137.9069   -94.0635   -42.9217 C0            1 RES     
    3578 C0         137.6027   -92.5754   -42.5884 C0            1 RES     
    3579 C0         136.2764   -92.4048   -41.8262 C0            1 RES     
    3580 C0         135.8527   -90.9807   -41.5068 C0            1 RES     
    3581 C0         136.6286   -90.2578   -40.4148 C0            1 RES     
    3582 C0         135.9073   -88.9187   -40.1590 C0            1 RES     
    3583 C0         136.4580   -88.1165   -38.9786 C0            1 RES     
    3584 C0         136.1960   -88.8029   -37.6372 C0            1 RES     
    3585 H6         136.3154   -93.9948   -45.9396 H6            1 RES     
    3586 H6         136.5906   -95.6834   -45.8663 H6            1 RES     
    3587 H6         138.1350   -95.6840   -44.2589 H6            1 RES     
    3588 H6         138.4186   -92.8835   -45.5449 H6            1 RES     
    3589 H6         138.7265   -94.4629   -46.3451 H6            1 RES     
    3590 H6         140.5963   -94.9208   -44.7428 H6            1 RES     
    3591 H6         140.3309   -93.3172   -43.9706 H6            1 RES     
    3592 H6         142.1898   -93.1493   -45.4525 H6            1 RES     
    3593 H6         140.8535   -92.0921   -45.9827 H6            1 RES     
    3594 H6         142.0098   -93.1705   -47.8843 H6            1 RES     
    3595 H6         140.2752   -93.6006   -47.8279 H6            1 RES     
    3596 H6         140.7858   -95.8370   -46.9096 H6            1 RES     
    3597 H6         141.6410   -95.5157   -48.4530 H6            1 RES     
    3598 H6         142.8677   -95.3257   -45.6203 H6            1 RES     
    3599 H6         143.7626   -95.0000   -47.1477 H6            1 RES     
    3600 H6         144.1854   -97.2573   -46.1582 H6            1 RES     
    3601 H6         142.4366   -97.6622   -46.3034 H6            1 RES     
    3602 H6         142.6475   -97.4586   -48.8388 H6            1 RES     
    3603 H6         144.3627   -96.9533   -48.6225 H6            1 RES     
    3604 H6         144.9117   -99.1795   -47.6337 H6            1 RES     
    3605 H6         144.2626   -99.2797   -49.3095 H6            1 RES     
    3606 H6         142.6524   -99.8766   -46.7433 H6            1 RES     
    3607 H6         142.0121   -99.9135   -48.4376 H6            1 RES     
    3608 H6         143.3010  -101.0648   -47.9209 H6            1 RES     
    3609 H6         138.9718   -94.2083   -42.6625 H6            1 RES     
    3610 H6         137.4896   -94.7372   -42.1499 H6            1 RES     
    3611 H6         138.3781   -92.2240   -41.8724 H6            1 RES     
    3612 H6         137.6771   -91.9424   -43.4957 H6            1 RES     
    3613 H6         136.2869   -93.0145   -40.8942 H6            1 RES     
    3614 H6         135.4536   -92.7512   -42.4416 H6            1 RES     
    3615 H6         135.8152   -90.3788   -42.4407 H6            1 RES     
    3616 H6         134.8337   -91.0759   -41.0968 H6            1 RES     
    3617 H6         136.6052   -90.8939   -39.5048 H6            1 RES     
    3618 H6         137.6834   -90.0886   -40.7163 H6            1 RES     
    3619 H6         135.9889   -88.3020   -41.0810 H6            1 RES     
    3620 H6         134.8236   -89.0941   -39.9670 H6            1 RES     
    3621 H6         135.9236   -87.1413   -38.9637 H6            1 RES     
    3622 H6         137.5406   -87.9260   -39.1183 H6            1 RES     
    3623 H6         136.7340   -89.7689   -37.5642 H6            1 RES     
    3624 H6         136.5480   -88.1466   -36.8151 H6            1 RES     
    3625 H6         135.1066   -88.9815   -37.5022 H6            1 RES     
    3626 C0         132.1680  -106.8033   -49.3807 C0            1 RES     
    3627 C1         131.8750  -105.2900   -49.2816 C1            1 RES     
    3628 C1         131.0756  -104.8510   -50.2883 C1            1 RES     
    3629 S2         130.8135  -103.1977   -50.2630 S2            1 RES     
    3630 C1         131.8130  -102.9930   -48.9029 C1            1 RES     
    3631 C1         132.3383  -104.2235   -48.4932 C1            1 RES     
    3632 C1         130.7851  -105.9351   -51.1444 C1            1 RES     
    3633 C1         131.4549  -107.0380   -50.7132 C1            1 RES     
    3634 C1         131.3298  -108.1087   -51.5902 C1            1 RES     
    3635 C1         130.5067  -107.7651   -52.6760 C1            1 RES     
    3636 S2         129.9553  -106.1627   -52.5679 S2            1 RES     
    3637 H3         133.0537  -104.2918   -47.6958 H3            1 RES     
    3638 H3         131.8067  -109.0721   -51.4554 H3            1 RES     
    3639 N4         128.6883  -109.8179   -55.2314 N4            1 RES     
    3640 C1         128.9372  -109.0787   -54.1107 C1            1 RES     
    3641 C1         130.2296  -108.5948   -53.8432 C1            1 RES     
    3642 C1         131.2404  -108.8722   -54.7652 C1            1 RES     
    3643 N4         132.5150  -108.4172   -54.6564 N4            1 RES     
    3644 S2         133.2135  -108.9976   -56.0374 S2            1 RES     
    3645 N4         131.9851  -109.8126   -56.7891 N4            1 RES     
    3646 C1         130.9520  -109.6253   -55.9310 C1            1 RES     
    3647 C1         129.6620  -110.1057   -56.1402 C1            1 RES     
    3648 H5         128.1262  -108.8730   -53.4175 H5            1 RES     
    3649 C0         131.5614  -107.7814   -48.3138 C0            1 RES     
    3650 C0         130.0756  -108.2574   -48.0956 C0            1 RES     
    3651 C0         130.1126  -109.1271   -46.7899 C0            1 RES     
    3652 C0         128.7987  -109.7942   -46.3648 C0            1 RES     
    3653 C0         128.9418  -110.5811   -45.0408 C0            1 RES     
    3654 C0         129.9295  -111.7684   -45.0673 C0            1 RES     
    3655 C0         129.6623  -112.8091   -46.1690 C0            1 RES     
    3656 C0         128.2499  -113.4160   -46.0954 C0            1 RES     
    3657 C0         127.9664  -114.4124   -47.2287 C0            1 RES     
    3658 C0         128.8166  -115.6908   -47.1378 C0            1 RES     
    3659 C0         128.4441  -116.7287   -48.2086 C0            1 RES     
    3660 C0         128.7520  -116.2627   -49.6321 C0            1 RES     
    3661 C0         128.9225  -107.2017   -48.0651 C0            1 RES     
    3662 C0         128.8867  -106.1446   -46.9188 C0            1 RES     
    3663 C0         128.9466  -104.7434   -47.5344 C0            1 RES     
    3664 C0         129.2517  -103.5674   -46.6109 C0            1 RES     
    3665 C0         128.0902  -103.0383   -45.7823 C0            1 RES     
    3666 C0         128.6050  -101.8333   -44.9672 C0            1 RES     
    3667 C0         127.5118  -101.0640   -44.2220 C0            1 RES     
    3668 C0         126.5696  -100.3253   -45.1748 C0            1 RES     
    3669 H6         131.8521  -107.4052   -47.3663 H6            1 RES     
    3670 H6         132.1111  -108.7361   -48.4755 H6            1 RES     
    3671 H6         129.8254  -108.9205   -48.9537 H6            1 RES     
    3672 H6         130.4497  -108.4960   -45.9387 H6            1 RES     
    3673 H6         130.8714  -109.9254   -46.9364 H6            1 RES     
    3674 H6         128.4271  -110.4547   -47.1745 H6            1 RES     
    3675 H6         128.0363  -109.0115   -46.1762 H6            1 RES     
    3676 H6         127.9382  -110.9564   -44.7525 H6            1 RES     
    3677 H6         129.2616  -109.8857   -44.2334 H6            1 RES     
    3678 H6         129.8891  -112.2725   -44.0760 H6            1 RES     
    3679 H6         130.9665  -111.3900   -45.1929 H6            1 RES     
    3680 H6         129.8093  -112.3361   -47.1628 H6            1 RES     
    3681 H6         130.4238  -113.6088   -46.0588 H6            1 RES     
    3682 H6         127.5043  -112.6024   -46.2057 H6            1 RES     
    3683 H6         128.0907  -113.9046   -45.1092 H6            1 RES     
    3684 H6         126.8956  -114.7035   -47.1590 H6            1 RES     
    3685 H6         128.1245  -113.8977   -48.1996 H6            1 RES     
    3686 H6         129.8976  -115.4567   -47.2277 H6            1 RES     
    3687 H6         128.6393  -116.1534   -46.1424 H6            1 RES     
    3688 H6         127.3657  -116.9861   -48.1252 H6            1 RES     
    3689 H6         129.0348  -117.6503   -48.0164 H6            1 RES     
    3690 H6         128.1507  -115.3722   -49.9051 H6            1 RES     
    3691 H6         129.8320  -116.0229   -49.7313 H6            1 RES     
    3692 H6         128.5013  -117.0745   -50.3466 H6            1 RES     
    3693 H6         127.9609  -107.7563   -48.0183 H6            1 RES     
    3694 H6         128.8703  -106.7158   -49.0629 H6            1 RES     
    3695 H6         127.9428  -106.2273   -46.3346 H6            1 RES     
    3696 H6         129.7372  -106.3052   -46.2256 H6            1 RES     
    3697 H6         128.0742  -104.5324   -48.1880 H6            1 RES     
    3698 H6         129.8124  -104.7878   -48.1602 H6            1 RES     
    3699 H6         130.1032  -103.8233   -45.9757 H6            1 RES     
    3700 H6         129.5741  -102.7283   -47.2686 H6            1 RES     
    3701 H6         127.2960  -102.7253   -46.4927 H6            1 RES     
    3702 H6         127.6870  -103.8189   -45.1031 H6            1 RES     
    3703 H6         129.3466  -102.2109   -44.2272 H6            1 RES     
    3704 H6         129.1319  -101.1107   -45.6311 H6            1 RES     
    3705 H6         128.0102  -100.2975   -43.5887 H6            1 RES     
    3706 H6         126.9410  -101.7493   -43.5607 H6            1 RES     
    3707 H6         126.0043  -101.0305   -45.8155 H6            1 RES     
    3708 H6         125.8412   -99.7300   -44.5878 H6            1 RES     
    3709 H6         127.1489   -99.6303   -45.8230 H6            1 RES     
    3710 C0         133.7417  -106.9133   -49.4643 C0            1 RES     
    3711 C0         134.6912  -107.5370   -48.3438 C0            1 RES     
    3712 C0         136.1194  -106.9459   -48.5952 C0            1 RES     
    3713 C0         137.2638  -107.6079   -47.8014 C0            1 RES     
    3714 C0         138.6447  -106.9804   -48.0613 C0            1 RES     
    3715 C0         139.1389  -107.0316   -49.5180 C0            1 RES     
    3716 C0         139.1456  -108.4302   -50.1571 C0            1 RES     
    3717 C0         139.9936  -109.4538   -49.3816 C0            1 RES     
    3718 C0         139.9857  -110.8474   -50.0304 C0            1 RES     
    3719 C0         140.6871  -110.8743   -51.4002 C0            1 RES     
    3720 C0         140.7912  -112.2879   -51.9937 C0            1 RES     
    3721 C0         139.4331  -112.8977   -52.3413 C0            1 RES     
    3722 C0         134.3615  -107.5983   -46.7931 C0            1 RES     
    3723 C0         134.2889  -106.3166   -45.9156 C0            1 RES     
    3724 C0         132.8435  -105.9469   -45.5367 C0            1 RES     
    3725 C0         132.6555  -104.6719   -44.7313 C0            1 RES     
    3726 C0         133.0799  -104.7092   -43.2699 C0            1 RES     
    3727 C0         132.6322  -103.3766   -42.6353 C0            1 RES     
    3728 C0         132.8384  -103.2936   -41.1218 C0            1 RES     
    3729 C0         131.9261  -104.2543   -40.3578 C0            1 RES     
    3730 H6         134.1401  -105.9125   -49.7518 H6            1 RES     
    3731 H6         133.9829  -107.4973   -50.3812 H6            1 RES     
    3732 H6         134.7307  -108.6194   -48.6062 H6            1 RES     
    3733 H6         136.1090  -105.8595   -48.3609 H6            1 RES     
    3734 H6         136.3480  -107.0600   -49.6767 H6            1 RES     
    3735 H6         137.2870  -108.6945   -48.0277 H6            1 RES     
    3736 H6         137.1023  -107.4790   -46.7136 H6            1 RES     
    3737 H6         139.3805  -107.5026   -47.4130 H6            1 RES     
    3738 H6         138.6298  -105.9165   -47.7373 H6            1 RES     
    3739 H6         140.1693  -106.6141   -49.5426 H6            1 RES     
    3740 H6         138.5033  -106.3697   -50.1441 H6            1 RES     
    3741 H6         138.1034  -108.8062   -50.2393 H6            1 RES     
    3742 H6         139.5436  -108.3083   -51.1851 H6            1 RES     
    3743 H6         139.5694  -109.5730   -48.3628 H6            1 RES     
    3744 H6         141.0397  -109.0914   -49.2825 H6            1 RES     
    3745 H6         140.5288  -111.5384   -49.3495 H6            1 RES     
    3746 H6         138.9349  -111.1973   -50.1152 H6            1 RES     
    3747 H6         140.1631  -110.2221   -52.1288 H6            1 RES     
    3748 H6         141.7214  -110.4887   -51.2659 H6            1 RES     
    3749 H6         141.3302  -112.9548   -51.2862 H6            1 RES     
    3750 H6         141.3861  -112.2241   -52.9302 H6            1 RES     
    3751 H6         138.8095  -113.0372   -51.4354 H6            1 RES     
    3752 H6         138.8945  -112.2486   -53.0642 H6            1 RES     
    3753 H6         139.5874  -113.8940   -52.8065 H6            1 RES     
    3754 H6         135.1783  -108.2031   -46.3584 H6            1 RES     
    3755 H6         133.5368  -108.2942   -46.5496 H6            1 RES     
    3756 H6         134.7780  -106.5447   -44.9430 H6            1 RES     
    3757 H6         134.8515  -105.4833   -46.3830 H6            1 RES     
    3758 H6         132.3522  -106.7996   -45.0154 H6            1 RES     
    3759 H6         132.2737  -105.7319   -46.4338 H6            1 RES     
    3760 H6         133.1219  -103.8153   -45.2649 H6            1 RES     
    3761 H6         131.5639  -104.5225   -44.6923 H6            1 RES     
    3762 H6         132.5610  -105.5648   -42.7883 H6            1 RES     
    3763 H6         134.1772  -104.8453   -43.1737 H6            1 RES     
    3764 H6         133.2035  -102.5550   -43.1208 H6            1 RES     
    3765 H6         131.5506  -103.1975   -42.8354 H6            1 RES     
    3766 H6         132.5715  -102.2605   -40.8081 H6            1 RES     
    3767 H6         133.9019  -103.4773   -40.8707 H6            1 RES     
    3768 H6         132.1638  -105.3111   -40.5915 H6            1 RES     
    3769 H6         132.0632  -104.1006   -39.2678 H6            1 RES     
    3770 H6         130.8610  -104.0561   -40.6094 H6            1 RES     
    3771 C0         128.9500  -114.2678   -59.5677 C0            1 RES     
    3772 C1         128.9849  -112.8874   -58.8755 C1            1 RES     
    3773 C1         128.7635  -111.8673   -59.7446 C1            1 RES     
    3774 S2         128.8859  -110.3519   -59.0439 S2            1 RES     
    3775 C1         129.2899  -111.0115   -57.5298 C1            1 RES     
    3776 C1         129.3254  -112.4085   -57.5994 C1            1 RES     
    3777 C1         128.5999  -112.4014   -61.0411 C1            1 RES     
    3778 C1         128.7842  -113.7486   -60.9967 C1            1 RES     
    3779 C1         128.7795  -114.3244   -62.2615 C1            1 RES     
    3780 C1         128.5469  -113.3507   -63.2474 C1            1 RES     
    3781 S2         128.3672  -111.8018   -62.5750 S2            1 RES     
    3782 H3         129.6360  -113.0053   -56.7630 H3            1 RES     
    3783 H3         128.9389  -115.3780   -62.4573 H3            1 RES     
    3784 N4         127.4714  -113.5742   -66.8312 N4            1 RES     
    3785 C1         127.4177  -113.4144   -65.4764 C1            1 RES     
    3786 C1         128.5736  -113.5623   -64.6904 C1            1 RES     
    3787 C1         129.7763  -113.8535   -65.3365 C1            1 RES     
    3788 N4         130.9723  -113.9650   -64.7035 N4            1 RES     
    3789 S2         132.0092  -114.2448   -65.9599 S2            1 RES     
    3790 N4         131.0269  -114.2389   -67.2917 N4            1 RES     
    3791 C1         129.8095  -113.9953   -66.7465 C1            1 RES     
    3792 C1         128.6335  -113.8653   -67.4806 C1            1 RES     
    3793 H5         126.4672  -113.1792   -65.0052 H5            1 RES     
    3794 C0         127.7732  -115.2594   -59.2600 C0            1 RES     
    3795 C0         126.2557  -115.2018   -59.6792 C0            1 RES     
    3796 C0         125.5838  -116.4180   -58.9500 C0            1 RES     
    3797 C0         124.0962  -116.6598   -59.2342 C0            1 RES     
    3798 C0         123.5301  -117.8499   -58.4242 C0            1 RES     
    3799 C0         124.1592  -119.2282   -58.7248 C0            1 RES     
    3800 C0         124.1223  -119.6484   -60.2047 C0            1 RES     
    3801 C0         122.6981  -119.6807   -60.7871 C0            1 RES     
    3802 C0         122.6689  -120.0457   -62.2782 C0            1 RES     
    3803 C0         123.1091  -121.4930   -62.5561 C0            1 RES     
    3804 C0         122.9667  -121.8829   -64.0360 C0            1 RES     
    3805 C0         123.9034  -121.1009   -64.9577 C0            1 RES     
    3806 C0         125.4483  -113.8779   -59.4781 C0            1 RES     
    3807 C0         125.2007  -113.3479   -58.0322 C0            1 RES     
    3808 C0         125.8062  -111.9465   -57.9072 C0            1 RES     
    3809 C0         125.9767  -111.3617   -56.5080 C0            1 RES     
    3810 C0         124.7319  -110.7657   -55.8671 C0            1 RES     
    3811 C0         125.1386  -110.1951   -54.4922 C0            1 RES     
    3812 C0         124.0408  -109.3878   -53.7958 C0            1 RES     
    3813 C0         123.7372  -108.0750   -54.5209 C0            1 RES     
    3814 H6         127.7443  -115.3685   -58.2060 H6            1 RES     
    3815 H6         128.1159  -116.2296   -59.6855 H6            1 RES     
    3816 H6         126.2222  -115.3862   -60.7762 H6            1 RES     
    3817 H6         125.6905  -116.2906   -57.8505 H6            1 RES     
    3818 H6         126.1418  -117.3349   -59.2370 H6            1 RES     
    3819 H6         123.9359  -116.8143   -60.3206 H6            1 RES     
    3820 H6         123.5150  -115.7697   -58.9194 H6            1 RES     
    3821 H6         122.4379  -117.9061   -58.6115 H6            1 RES     
    3822 H6         123.6528  -117.6455   -57.3374 H6            1 RES     
    3823 H6         123.6225  -119.9917   -58.1186 H6            1 RES     
    3824 H6         125.2181  -119.2378   -58.3886 H6            1 RES     
    3825 H6         124.7484  -118.9500   -60.7993 H6            1 RES     
    3826 H6         124.5817  -120.6563   -60.2728 H6            1 RES     
    3827 H6         122.2561  -118.6665   -60.7086 H6            1 RES     
    3828 H6         122.0608  -120.3854   -60.2093 H6            1 RES     
    3829 H6         121.6211  -119.9290   -62.6314 H6            1 RES     
    3830 H6         123.3051  -119.3233   -62.8315 H6            1 RES     
    3831 H6         124.1612  -121.6557   -62.2432 H6            1 RES     
    3832 H6         122.4577  -122.1718   -61.9635 H6            1 RES     
    3833 H6         121.9142  -121.7390   -64.3643 H6            1 RES     
    3834 H6         123.2145  -122.9618   -64.1342 H6            1 RES     
    3835 H6         123.6710  -120.0169   -64.9453 H6            1 RES     
    3836 H6         124.9596  -121.2551   -64.6505 H6            1 RES     
    3837 H6         123.7801  -121.4633   -65.9998 H6            1 RES     
    3838 H6         124.4486  -114.0208   -59.9414 H6            1 RES     
    3839 H6         125.9008  -113.0939   -60.1224 H6            1 RES     
    3840 H6         124.1105  -113.2755   -57.8193 H6            1 RES     
    3841 H6         125.6524  -114.0379   -57.2909 H6            1 RES     
    3842 H6         125.3305  -111.2187   -58.5978 H6            1 RES     
    3843 H6         126.8148  -112.0857   -58.2336 H6            1 RES     
    3844 H6         126.4309  -112.1144   -55.8590 H6            1 RES     
    3845 H6         126.7085  -110.5276   -56.6044 H6            1 RES     
    3846 H6         124.3710  -109.9587   -56.5394 H6            1 RES     
    3847 H6         123.9325  -111.5271   -55.7471 H6            1 RES     
    3848 H6         125.4267  -111.0489   -53.8377 H6            1 RES     
    3849 H6         126.0297  -109.5344   -54.5929 H6            1 RES     
    3850 H6         124.4071  -109.1272   -52.7784 H6            1 RES     
    3851 H6         123.1199  -109.9993   -53.6919 H6            1 RES     
    3852 H6         123.3276  -108.2556   -55.5343 H6            1 RES     
    3853 H6         122.9885  -107.4968   -53.9422 H6            1 RES     
    3854 H6         124.6626  -107.4627   -54.6070 H6            1 RES     
    3855 C0         130.3634  -114.9104   -59.2759 C0            1 RES     
    3856 C0         130.6332  -116.1845   -58.3539 C0            1 RES     
    3857 C0         132.1378  -116.1102   -57.9261 C0            1 RES     
    3858 C0         132.7013  -117.3758   -57.2487 C0            1 RES     
    3859 C0         134.1750  -117.2498   -56.8241 C0            1 RES     
    3860 C0         135.1764  -116.9714   -57.9592 C0            1 RES     
    3861 C0         135.1233  -117.9611   -59.1350 C0            1 RES     
    3862 C0         135.3493  -119.4241   -58.7146 C0            1 RES     
    3863 C0         135.2880  -120.4008   -59.9002 C0            1 RES     
    3864 C0         136.4457  -120.2073   -60.8958 C0            1 RES     
    3865 C0         136.4583  -121.2614   -62.0139 C0            1 RES     
    3866 C0         135.2472  -121.1705   -62.9424 C0            1 RES     
    3867 C0         129.7168  -116.6528   -57.1464 C0            1 RES     
    3868 C0         129.5916  -115.8225   -55.8377 C0            1 RES     
    3869 C0         128.2345  -115.1046   -55.7267 C0            1 RES     
    3870 C0         128.0332  -114.2127   -54.5127 C0            1 RES     
    3871 C0         127.8303  -114.9058   -53.1726 C0            1 RES     
    3872 C0         127.4769  -113.8100   -52.1463 C0            1 RES     
    3873 C0         127.0855  -114.3371   -50.7646 C0            1 RES     
    3874 C0         125.7584  -115.0970   -50.7874 C0            1 RES     
    3875 H6         131.0536  -114.0925   -58.9636 H6            1 RES     
    3876 H6         130.8090  -115.1863   -60.2583 H6            1 RES     
    3877 H6         130.5316  -117.0433   -59.0569 H6            1 RES     
    3878 H6         132.2773  -115.2489   -57.2376 H6            1 RES     
    3879 H6         132.7409  -115.9185   -58.8395 H6            1 RES     
    3880 H6         132.5700  -118.2447   -57.9271 H6            1 RES     
    3881 H6         132.1588  -117.5814   -56.3056 H6            1 RES     
    3882 H6         134.4618  -118.1946   -56.3148 H6            1 RES     
    3883 H6         134.2703  -116.4373   -56.0705 H6            1 RES     
    3884 H6         136.1984  -116.9798   -57.5210 H6            1 RES     
    3885 H6         135.0013  -115.9503   -58.3602 H6            1 RES     
    3886 H6         134.1418  -117.8756   -59.6485 H6            1 RES     
    3887 H6         135.9090  -117.6462   -59.8516 H6            1 RES     
    3888 H6         134.5444  -119.7239   -58.0115 H6            1 RES     
    3889 H6         136.3245  -119.5285   -58.1917 H6            1 RES     
    3890 H6         135.3526  -121.4321   -59.4899 H6            1 RES     
    3891 H6         134.3057  -120.2887   -60.4064 H6            1 RES     
    3892 H6         136.4083  -119.2000   -61.3593 H6            1 RES     
    3893 H6         137.4018  -120.2996   -60.3356 H6            1 RES     
    3894 H6         136.5141  -122.2796   -61.5712 H6            1 RES     
    3895 H6         137.3710  -121.1004   -62.6272 H6            1 RES     
    3896 H6         134.3042  -121.3757   -62.3969 H6            1 RES     
    3897 H6         135.1938  -120.1625   -63.4062 H6            1 RES     
    3898 H6         135.3467  -121.9268   -63.7492 H6            1 RES     
    3899 H6         130.1414  -117.6249   -56.8352 H6            1 RES     
    3900 H6         128.7309  -117.0361   -57.4701 H6            1 RES     
    3901 H6         129.5961  -116.5350   -54.9835 H6            1 RES     
    3902 H6         130.4619  -115.1471   -55.7115 H6            1 RES     
    3903 H6         127.4024  -115.8414   -55.7970 H6            1 RES     
    3904 H6         128.1255  -114.3999   -56.5435 H6            1 RES     
    3905 H6         128.8486  -113.4591   -54.4576 H6            1 RES     
    3906 H6         127.0764  -113.6973   -54.6982 H6            1 RES     
    3907 H6         126.9885  -115.6213   -53.2853 H6            1 RES     
    3908 H6         128.7420  -115.4586   -52.8642 H6            1 RES     
    3909 H6         128.3595  -113.1417   -52.0385 H6            1 RES     
    3910 H6         126.6295  -113.1899   -52.5196 H6            1 RES     
    3911 H6         126.9531  -113.4554   -50.0998 H6            1 RES     
    3912 H6         127.8957  -114.9722   -50.3546 H6            1 RES     
    3913 H6         125.8282  -116.0162   -51.4023 H6            1 RES     
    3914 H6         125.4872  -115.3913   -49.7528 H6            1 RES     
    3915 H6         124.9503  -114.4486   -51.1915 H6            1 RES     
    3916 C0         128.4206  -116.0149   -72.4718 C0            1 RES     
    3917 C1         128.4860  -115.0745   -71.2482 C1            1 RES     
    3918 C1         128.8554  -113.8116   -71.5856 C1            1 RES     
    3919 S2         129.0255  -112.7897   -70.2706 S2            1 RES     
    3920 C1         128.6458  -114.0310   -69.1725 C1            1 RES     
    3921 C1         128.3954  -115.2267   -69.8546 C1            1 RES     
    3922 C1         129.0997  -113.7648   -72.9751 C1            1 RES     
    3923 C1         128.9484  -115.0115   -73.4984 C1            1 RES     
    3924 C1         129.3129  -115.0699   -74.8382 C1            1 RES     
    3925 C1         129.7078  -113.8027   -75.2991 C1            1 RES     
    3926 S2         129.6267  -112.6313   -74.0724 S2            1 RES     
    3927 H3         128.2123  -116.1453   -69.3301 H3            1 RES     
    3928 H3         129.2986  -115.9707   -75.4400 H3            1 RES     
    3929 N4         130.1044  -112.3626   -78.7370 N4            1 RES     
    3930 C1         129.5602  -112.6733   -77.5240 C1            1 RES     
    3931 C1         130.2509  -113.4963   -76.6177 C1            1 RES     
    3932 C1         131.5137  -113.9651   -76.9847 C1            1 RES     
    3933 N4         132.3083  -114.7184   -76.1818 N4            1 RES     
    3934 S2         133.6649  -114.9055   -77.1073 S2            1 RES     
    3935 N4         133.3118  -114.0801   -78.4974 N4            1 RES     
    3936 C1         132.0651  -113.6122   -78.2419 C1            1 RES     
    3937 C1         131.3321  -112.8152   -79.1173 C1            1 RES     
    3938 H5         128.5789  -112.2848   -77.2654 H5            1 RES     
    3939 C0         127.0297  -116.5467   -72.9670 C0            1 RES     
    3940 C0         125.8522  -115.7960   -73.6963 C0            1 RES     
    3941 C0         124.6968  -116.8526   -73.8013 C0            1 RES     
    3942 C0         123.4267  -116.4183   -74.5432 C0            1 RES     
    3943 C0         122.3398  -117.5190   -74.5397 C0            1 RES     
    3944 C0         122.7140  -118.8362   -75.2544 C0            1 RES     
    3945 C0         123.1687  -118.6739   -76.7156 C0            1 RES     
    3946 C0         122.1186  -117.9787   -77.6003 C0            1 RES     
    3947 C0         122.5968  -117.7677   -79.0440 C0            1 RES     
    3948 C0         122.7781  -119.0831   -79.8202 C0            1 RES     
    3949 C0         123.1453  -118.8561   -81.2953 C0            1 RES     
    3950 C0         124.5164  -118.2051   -81.4814 C0            1 RES     
    3951 C0         125.3458  -114.4261   -73.1377 C0            1 RES     
    3952 C0         124.6748  -114.3775   -71.7306 C0            1 RES     
    3953 C0         125.4768  -113.4320   -70.8312 C0            1 RES     
    3954 C0         125.2096  -113.4730   -69.3292 C0            1 RES     
    3955 C0         123.9789  -112.7237   -68.8399 C0            1 RES     
    3956 C0         123.9289  -112.8553   -67.3031 C0            1 RES     
    3957 C0         122.8545  -111.9964   -66.6323 C0            1 RES     
    3958 C0         123.1588  -110.5004   -66.7361 C0            1 RES     
    3959 H6         126.5660  -116.9948   -72.1255 H6            1 RES     
    3960 H6         127.2876  -117.3632   -73.6787 H6            1 RES     
    3961 H6         126.2118  -115.5637   -74.7235 H6            1 RES     
    3962 H6         124.3889  -117.1618   -72.7785 H6            1 RES     
    3963 H6         125.1044  -117.7499   -74.3143 H6            1 RES     
    3964 H6         123.6756  -116.1173   -75.5812 H6            1 RES     
    3965 H6         122.9815  -115.5453   -74.0246 H6            1 RES     
    3966 H6         121.4258  -117.1026   -75.0113 H6            1 RES     
    3967 H6         122.0683  -117.7631   -73.4888 H6            1 RES     
    3968 H6         121.8279  -119.5087   -75.2239 H6            1 RES     
    3969 H6         123.5252  -119.3487   -74.6944 H6            1 RES     
    3970 H6         124.1156  -118.0945   -76.7422 H6            1 RES     
    3971 H6         123.3822  -119.6894   -77.1091 H6            1 RES     
    3972 H6         121.9179  -116.9678   -77.1905 H6            1 RES     
    3973 H6         121.1668  -118.5538   -77.5939 H6            1 RES     
    3974 H6         121.8259  -117.1609   -79.5672 H6            1 RES     
    3975 H6         123.5419  -117.1855   -79.0219 H6            1 RES     
    3976 H6         123.5585  -119.7174   -79.3510 H6            1 RES     
    3977 H6         121.8137  -119.6358   -79.7930 H6            1 RES     
    3978 H6         122.3664  -118.2327   -81.7862 H6            1 RES     
    3979 H6         123.1660  -119.8450   -81.8021 H6            1 RES     
    3980 H6         124.5443  -117.1879   -81.0414 H6            1 RES     
    3981 H6         125.3046  -118.8315   -81.0123 H6            1 RES     
    3982 H6         124.7349  -118.1126   -82.5659 H6            1 RES     
    3983 H6         124.6035  -114.0231   -73.8596 H6            1 RES     
    3984 H6         126.1763  -113.6919   -73.2136 H6            1 RES     
    3985 H6         123.6341  -113.9892   -71.8024 H6            1 RES     
    3986 H6         124.6343  -115.3954   -71.2923 H6            1 RES     
    3987 H6         125.4844  -112.3902   -71.2153 H6            1 RES     
    3988 H6         126.4745  -113.8089   -70.9077 H6            1 RES     
    3989 H6         125.1937  -114.5141   -68.9974 H6            1 RES     
    3990 H6         126.0855  -112.9873   -68.8421 H6            1 RES     
    3991 H6         124.0993  -111.6619   -69.1425 H6            1 RES     
    3992 H6         123.0495  -113.1301   -69.2918 H6            1 RES     
    3993 H6         123.7401  -113.9246   -67.0559 H6            1 RES     
    3994 H6         124.9103  -112.5761   -66.8563 H6            1 RES     
    3995 H6         122.8400  -112.2572   -65.5512 H6            1 RES     
    3996 H6         121.8561  -112.2232   -67.0620 H6            1 RES     
    3997 H6         123.1508  -110.1560   -67.7890 H6            1 RES     
    3998 H6         122.3915  -109.9268   -66.1777 H6            1 RES     
    3999 H6         124.1544  -110.2808   -66.2897 H6            1 RES     
    4000 C0         129.4255  -117.1887   -72.1431 C0            1 RES     
    4001 C0         129.0223  -118.7069   -71.8628 C0            1 RES     
    4002 C0         130.2141  -119.3419   -71.0699 C0            1 RES     
    4003 C0         130.1710  -120.8758   -70.9172 C0            1 RES     
    4004 C0         131.3479  -121.4537   -70.1116 C0            1 RES     
    4005 C0         132.7490  -121.1876   -70.6906 C0            1 RES     
    4006 C0         132.9436  -121.6165   -72.1544 C0            1 RES     
    4007 C0         132.6562  -123.1085   -72.3986 C0            1 RES     
    4008 C0         132.8504  -123.5198   -73.8671 C0            1 RES     
    4009 C0         134.3174  -123.4326   -74.3245 C0            1 RES     
    4010 C0         134.5338  -123.9612   -75.7511 C0            1 RES     
    4011 C0         133.8371  -123.1179   -76.8191 C0            1 RES     
    4012 C0         127.6267  -119.1933   -71.2860 C0            1 RES     
    4013 C0         127.1854  -118.8826   -69.8277 C0            1 RES     
    4014 C0         126.0894  -117.8037   -69.7642 C0            1 RES     
    4015 C0         125.6309  -117.3792   -68.3788 C0            1 RES     
    4016 C0         124.7704  -118.3669   -67.6034 C0            1 RES     
    4017 C0         124.2950  -117.6457   -66.3256 C0            1 RES     
    4018 C0         123.2867  -118.4354   -65.4891 C0            1 RES     
    4019 C0         121.9425  -118.5977   -66.2004 C0            1 RES     
    4020 H6         130.1004  -116.8429   -71.3258 H6            1 RES     
    4021 H6         130.1477  -117.2506   -72.9884 H6            1 RES     
    4022 H6         129.0172  -119.1685   -72.8772 H6            1 RES     
    4023 H6         130.2593  -118.8870   -70.0568 H6            1 RES     
    4024 H6         131.1534  -119.0814   -71.6035 H6            1 RES     
    4025 H6         130.1274  -121.3438   -71.9230 H6            1 RES     
    4026 H6         129.2711  -121.1808   -70.3487 H6            1 RES     
    4027 H6         131.1947  -122.5510   -70.0298 H6            1 RES     
    4028 H6         131.3173  -121.0473   -69.0768 H6            1 RES     
    4029 H6         133.4875  -121.7208   -70.0527 H6            1 RES     
    4030 H6         132.9762  -120.1027   -70.6162 H6            1 RES     
    4031 H6         132.2879  -121.0056   -72.8109 H6            1 RES     
    4032 H6         133.9960  -121.3846   -72.4166 H6            1 RES     
    4033 H6         131.5954  -123.3157   -72.1462 H6            1 RES     
    4034 H6         133.2986  -123.7368   -71.7444 H6            1 RES     
    4035 H6         132.5186  -124.5762   -73.9671 H6            1 RES     
    4036 H6         132.1969  -122.8881   -74.5056 H6            1 RES     
    4037 H6         134.6890  -122.3885   -74.2736 H6            1 RES     
    4038 H6         134.9306  -124.0563   -73.6379 H6            1 RES     
    4039 H6         134.1844  -125.0143   -75.8197 H6            1 RES     
    4040 H6         135.6249  -123.9445   -75.9616 H6            1 RES     
    4041 H6         132.7357  -123.1383   -76.6944 H6            1 RES     
    4042 H6         134.1948  -122.0672   -76.7723 H6            1 RES     
    4043 H6         134.0749  -123.5287   -77.8228 H6            1 RES     
    4044 H6         127.6683  -120.2961   -71.3491 H6            1 RES     
    4045 H6         126.7886  -119.0512   -71.9939 H6            1 RES     
    4046 H6         126.6963  -119.7951   -69.4208 H6            1 RES     
    4047 H6         128.0624  -118.6616   -69.1862 H6            1 RES     
    4048 H6         125.2109  -118.1110   -70.3759 H6            1 RES     
    4049 H6         126.4687  -116.8726   -70.1703 H6            1 RES     
    4050 H6         126.5042  -117.0460   -67.7770 H6            1 RES     
    4051 H6         124.9638  -116.5193   -68.5548 H6            1 RES     
    4052 H6         123.9046  -118.6376   -68.2440 H6            1 RES     
    4053 H6         125.3409  -119.2851   -67.3515 H6            1 RES     
    4054 H6         125.1886  -117.4290   -65.6998 H6            1 RES     
    4055 H6         123.8224  -116.6705   -66.5855 H6            1 RES     
    4056 H6         123.1030  -117.8550   -64.5583 H6            1 RES     
    4057 H6         123.7083  -119.4226   -65.2145 H6            1 RES     
    4058 H6         122.0424  -119.2047   -67.1221 H6            1 RES     
    4059 H6         121.2292  -119.1103   -65.5229 H6            1 RES     
    4060 H6         121.5233  -117.6018   -66.4636 H6            1 RES     
    4061 C0         132.6243  -112.8684   -84.3999 C0            1 RES     
    4062 C1         132.4108  -112.5031   -82.9144 C1            1 RES     
    4063 C1         133.1528  -111.4309   -82.5337 C1            1 RES     
    4064 S2         133.0150  -111.0650   -80.9059 S2            1 RES     
    4065 C1         131.9702  -112.3780   -80.6311 C1            1 RES     
    4066 C1         131.7494  -113.0833   -81.8192 C1            1 RES     
    4067 C1         133.9265  -110.9995   -83.6328 C1            1 RES     
    4068 C1         133.7205  -111.8400   -84.6825 C1            1 RES     
    4069 C1         134.5586  -111.5608   -85.7553 C1            1 RES     
    4070 C1         135.3728  -110.4514   -85.4712 C1            1 RES     
    4071 S2         135.0786  -109.8340   -83.9170 S2            1 RES     
    4072 H3         131.1766  -113.9910   -81.8358 H3            1 RES     
    4073 H3         134.5825  -112.1256   -86.6795 H3            1 RES     
    4074 N4         137.3949  -108.1640   -87.6459 N4            1 RES     
    4075 C1         136.3643  -108.6524   -86.8953 C1            1 RES     
    4076 C1         136.4430  -109.9298   -86.3140 C1            1 RES     
    4077 C1         137.6103  -110.6705   -86.5076 C1            1 RES     
    4078 N4         137.8378  -111.8900   -85.9556 N4            1 RES     
    4079 S2         139.3705  -112.2286   -86.4732 S2            1 RES     
    4080 N4         139.7837  -110.9056   -87.3772 N4            1 RES     
    4081 C1         138.6741  -110.1329   -87.2749 C1            1 RES     
    4082 C1         138.5398  -108.8733   -87.8528 C1            1 RES     
    4083 H5         135.4729  -108.0468   -86.7566 H5            1 RES     
    4084 C0         131.4590  -112.6470   -85.4275 C0            1 RES     
    4085 C0         130.8603  -111.3150   -86.0184 C0            1 RES     
    4086 C0         129.6359  -111.7681   -86.8890 C0            1 RES     
    4087 C0         128.8894  -110.6711   -87.6581 C0            1 RES     
    4088 C0         127.6739  -111.2250   -88.4382 C0            1 RES     
    4089 C0         127.9966  -112.2528   -89.5452 C0            1 RES     
    4090 C0         129.0118  -111.7740   -90.5979 C0            1 RES     
    4091 C0         128.5755  -110.4828   -91.3129 C0            1 RES     
    4092 C0         129.6156  -109.9766   -92.3226 C0            1 RES     
    4093 C0         129.7906  -110.9110   -93.5317 C0            1 RES     
    4094 C0         130.7475  -110.3394   -94.5899 C0            1 RES     
    4095 C0         132.1888  -110.2149   -94.0944 C0            1 RES     
    4096 C0         130.4925  -110.1392   -85.0554 C0            1 RES     
    4097 C0         129.3522  -110.3380   -84.0100 C0            1 RES     
    4098 C0         129.9247  -110.1260   -82.6053 C0            1 RES     
    4099 C0         129.0878  -110.5828   -81.4138 C0            1 RES     
    4100 C0         127.9631  -109.6539   -80.9806 C0            1 RES     
    4101 C0         127.2864  -110.2805   -79.7434 C0            1 RES     
    4102 C0         126.2542  -109.3769   -79.0649 C0            1 RES     
    4103 C0         126.8981  -108.1602   -78.3967 C0            1 RES     
    4104 H6         130.6156  -113.1552   -85.0346 H6            1 RES     
    4105 H6         131.7875  -113.2008   -86.3358 H6            1 RES     
    4106 H6         131.6359  -110.8909   -86.6945 H6            1 RES     
    4107 H6         128.8912  -112.2761   -86.2380 H6            1 RES     
    4108 H6         130.0023  -112.5152   -87.6253 H6            1 RES     
    4109 H6         129.5856  -110.1435   -88.3414 H6            1 RES     
    4110 H6         128.4820  -109.9332   -86.9379 H6            1 RES     
    4111 H6         127.1353  -110.3674   -88.8917 H6            1 RES     
    4112 H6         126.9650  -111.6998   -87.7242 H6            1 RES     
    4113 H6         127.0445  -112.5196   -90.0559 H6            1 RES     
    4114 H6         128.3875  -113.1864   -89.0869 H6            1 RES     
    4115 H6         129.9959  -111.6112   -90.1100 H6            1 RES     
    4116 H6         129.1318  -112.5934   -91.3367 H6            1 RES     
    4117 H6         128.4595  -109.6777   -90.5590 H6            1 RES     
    4118 H6         127.5959  -110.6332   -91.8173 H6            1 RES     
    4119 H6         129.2671  -108.9891   -92.6962 H6            1 RES     
    4120 H6         130.5796  -109.8276   -91.7924 H6            1 RES     
    4121 H6         130.1627  -111.9070   -93.2140 H6            1 RES     
    4122 H6         128.7965  -111.0445   -94.0116 H6            1 RES     
    4123 H6         130.3829  -109.3458   -94.9307 H6            1 RES     
    4124 H6         130.7457  -111.0259   -95.4639 H6            1 RES     
    4125 H6         132.2663  -109.4986   -93.2518 H6            1 RES     
    4126 H6         132.5695  -111.2070   -93.7711 H6            1 RES     
    4127 H6         132.8298  -109.8402   -94.9196 H6            1 RES     
    4128 H6         130.2024  -109.2696   -85.6831 H6            1 RES     
    4129 H6         131.4264  -109.7830   -84.5700 H6            1 RES     
    4130 H6         128.5373  -109.5964   -84.1686 H6            1 RES     
    4131 H6         128.9186  -111.3539   -84.1076 H6            1 RES     
    4132 H6         130.3131  -109.0960   -82.4594 H6            1 RES     
    4133 H6         130.7619  -110.7906   -82.5793 H6            1 RES     
    4134 H6         128.7127  -111.5910   -81.6061 H6            1 RES     
    4135 H6         129.7862  -110.6525   -80.5490 H6            1 RES     
    4136 H6         128.4246  -108.6761   -80.7265 H6            1 RES     
    4137 H6         127.2207  -109.5081   -81.7934 H6            1 RES     
    4138 H6         126.7839  -111.2205   -80.0660 H6            1 RES     
    4139 H6         128.0489  -110.5534   -78.9787 H6            1 RES     
    4140 H6         125.7593  -109.9707   -78.2652 H6            1 RES     
    4141 H6         125.4813  -109.0585   -79.7957 H6            1 RES     
    4142 H6         127.3804  -107.4957   -79.1404 H6            1 RES     
    4143 H6         126.1211  -107.5766   -77.8626 H6            1 RES     
    4144 H6         127.6604  -108.4896   -77.6557 H6            1 RES     
    4145 C0         133.1322  -114.3642   -84.3871 C0            1 RES     
    4146 C0         132.3260  -115.6249   -84.9409 C0            1 RES     
    4147 C0         132.9381  -116.8842   -84.2396 C0            1 RES     
    4148 C0         132.4999  -118.2462   -84.8148 C0            1 RES     
    4149 C0         133.1064  -119.4552   -84.0809 C0            1 RES     
    4150 C0         134.6433  -119.5385   -84.0863 C0            1 RES     
    4151 C0         135.2964  -119.4742   -85.4770 C0            1 RES     
    4152 C0         134.8051  -120.5732   -86.4356 C0            1 RES     
    4153 C0         135.4635  -120.4920   -87.8224 C0            1 RES     
    4154 C0         136.9720  -120.7960   -87.7879 C0            1 RES     
    4155 C0         137.6078  -120.8386   -89.1862 C0            1 RES     
    4156 C0         137.5918  -119.4856   -89.8978 C0            1 RES     
    4157 C0         130.7460  -115.7332   -85.0354 C0            1 RES     
    4158 C0         129.8486  -115.8074   -83.7676 C0            1 RES     
    4159 C0         129.0844  -114.4957   -83.5130 C0            1 RES     
    4160 C0         128.2255  -114.4401   -82.2604 C0            1 RES     
    4161 C0         126.9343  -115.2462   -82.2721 C0            1 RES     
    4162 C0         126.1682  -114.8908   -80.9814 C0            1 RES     
    4163 C0         124.7649  -115.4928   -80.8902 C0            1 RES     
    4164 C0         123.8081  -114.8947   -81.9226 C0            1 RES     
    4165 H6         133.4907  -114.5953   -83.3570 H6            1 RES     
    4166 H6         134.0950  -114.3900   -84.9461 H6            1 RES     
    4167 H6         132.6172  -115.6711   -86.0157 H6            1 RES     
    4168 H6         132.6817  -116.8581   -83.1585 H6            1 RES     
    4169 H6         134.0437  -116.8188   -84.3302 H6            1 RES     
    4170 H6         132.7520  -118.2868   -85.8953 H6            1 RES     
    4171 H6         131.4059  -118.3766   -84.7043 H6            1 RES     
    4172 H6         132.6944  -120.3753   -84.5477 H6            1 RES     
    4173 H6         132.7630  -119.4507   -83.0230 H6            1 RES     
    4174 H6         134.9342  -120.4902   -83.5901 H6            1 RES     
    4175 H6         135.0574  -118.7103   -83.4726 H6            1 RES     
    4176 H6         135.1040  -118.4792   -85.9322 H6            1 RES     
    4177 H6         136.3901  -119.5687   -85.3195 H6            1 RES     
    4178 H6         133.7131  -120.4509   -86.5925 H6            1 RES     
    4179 H6         134.9827  -121.5776   -85.9937 H6            1 RES     
    4180 H6         134.9725  -121.2484   -88.4726 H6            1 RES     
    4181 H6         135.2706  -119.4861   -88.2522 H6            1 RES     
    4182 H6         137.5151  -120.0477   -87.1747 H6            1 RES     
    4183 H6         137.1118  -121.7968   -87.3240 H6            1 RES     
    4184 H6         137.0895  -121.5965   -89.8128 H6            1 RES     
    4185 H6         138.6681  -121.1511   -89.0718 H6            1 RES     
    4186 H6         136.5550  -119.1429   -90.0897 H6            1 RES     
    4187 H6         138.1254  -118.7252   -89.2888 H6            1 RES     
    4188 H6         138.1068  -119.5806   -90.8768 H6            1 RES     
    4189 H6         130.5635  -116.6793   -85.5772 H6            1 RES     
    4190 H6         130.3070  -115.0587   -85.7944 H6            1 RES     
    4191 H6         129.0503  -116.5571   -83.9620 H6            1 RES     
    4192 H6         130.4288  -116.1596   -82.8909 H6            1 RES     
    4193 H6         128.4720  -114.2279   -84.4039 H6            1 RES     
    4194 H6         129.7886  -113.6900   -83.3383 H6            1 RES     
    4195 H6         128.8428  -114.6803   -81.3676 H6            1 RES     
    4196 H6         127.8895  -113.3920   -82.1964 H6            1 RES     
    4197 H6         126.3527  -114.9414   -83.1677 H6            1 RES     
    4198 H6         127.1412  -116.3355   -82.3231 H6            1 RES     
    4199 H6         126.7685  -115.2474   -80.1155 H6            1 RES     
    4200 H6         126.0644  -113.7854   -80.8857 H6            1 RES     
    4201 H6         124.3643  -115.2460   -79.8825 H6            1 RES     
    4202 H6         124.8148  -116.5951   -80.9921 H6            1 RES     
    4203 H6         124.1244  -115.1369   -82.9566 H6            1 RES     
    4204 H6         122.7919  -115.3104   -81.7641 H6            1 RES     
    4205 H6         123.7578  -113.7898   -81.8063 H6            1 RES     
    4206 C0         141.7544  -107.5662   -92.0404 C0            1 RES     
    4207 C1         141.0618  -107.6860   -90.6650 C1            1 RES     
    4208 C1         141.8124  -107.1632   -89.6607 C1            1 RES     
    4209 S2         141.1318  -107.3596   -88.1439 S2            1 RES     
    4210 C1         139.8004  -108.2060   -88.7778 C1            1 RES     
    4211 C1         139.9131  -108.3236   -90.1675 C1            1 RES     
    4212 C1         143.0299  -106.6940   -90.1994 C1            1 RES     
    4213 C1         143.0717  -106.9817   -91.5285 C1            1 RES     
    4214 C1         144.3027  -106.6766   -92.0966 C1            1 RES     
    4215 C1         145.1639  -106.1148   -91.1390 C1            1 RES     
    4216 S2         144.4282  -106.0110   -89.6121 S2            1 RES     
    4217 H3         139.2072  -108.8921   -90.7426 H3            1 RES     
    4218 H3         144.5615  -106.8537   -93.1337 H3            1 RES     
    4219 N4         148.3291  -104.1277   -91.4273 N4            1 RES     
    4220 C1         147.0063  -104.4316   -91.2788 C1            1 RES     
    4221 C1         146.5655  -105.7649   -91.3406 C1            1 RES     
    4222 C1         147.5195  -106.7655   -91.5344 C1            1 RES     
    4223 N4         147.2358  -108.0930   -91.5560 N4            1 RES     
    4224 S2         148.7321  -108.7682   -91.7483 S2            1 RES     
    4225 N4         149.7488  -107.4641   -91.8119 N4            1 RES     
    4226 C1         148.8893  -106.4255   -91.6661 C1            1 RES     
    4227 C1         149.2752  -105.0883   -91.6241 C1            1 RES     
    4228 H5         146.2903  -103.6298   -91.1204 H5            1 RES     
    4229 C0         141.1663  -106.5927   -93.1218 C0            1 RES     
    4230 C0         141.1588  -105.0184   -93.1799 C0            1 RES     
    4231 C0         140.3070  -104.6603   -94.4482 C0            1 RES     
    4232 C0         140.1855  -103.1732   -94.8033 C0            1 RES     
    4233 C0         139.2837  -102.9366   -96.0377 C0            1 RES     
    4234 C0         139.7784  -103.5600   -97.3615 C0            1 RES     
    4235 C0         141.2038  -103.1543   -97.7759 C0            1 RES     
    4236 C0         141.3810  -101.6319   -97.9156 C0            1 RES     
    4237 C0         142.8178  -101.2265   -98.2743 C0            1 RES     
    4238 C0         143.2414  -101.6797   -99.6817 C0            1 RES     
    4239 C0         144.6376  -101.1706  -100.0741 C0            1 RES     
    4240 C0         145.7573  -101.7625   -99.2172 C0            1 RES     
    4241 C0         140.7132  -104.2009   -91.9236 C0            1 RES     
    4242 C0         139.2410  -104.3163   -91.4217 C0            1 RES     
    4243 C0         139.2478  -104.8286   -89.9783 C0            1 RES     
    4244 C0         137.9319  -105.3286   -89.3890 C0            1 RES     
    4245 C0         136.9637  -104.2639   -88.8945 C0            1 RES     
    4246 C0         135.7353  -104.9851   -88.3010 C0            1 RES     
    4247 C0         134.7479  -104.0609   -87.5847 C0            1 RES     
    4248 C0         135.3301  -103.4768   -86.2958 C0            1 RES     
    4249 H6         140.1467  -106.8586   -93.2381 H6            1 RES     
    4250 H6         141.6934  -106.8774   -94.0604 H6            1 RES     
    4251 H6         142.2104  -104.7024   -93.3609 H6            1 RES     
    4252 H6         139.2742  -105.0513   -94.3185 H6            1 RES     
    4253 H6         140.7575  -105.1852   -95.3177 H6            1 RES     
    4254 H6         141.1919  -102.7362   -94.9643 H6            1 RES     
    4255 H6         139.7026  -102.6355   -93.9625 H6            1 RES     
    4256 H6         139.1708  -101.8417   -96.1775 H6            1 RES     
    4257 H6         138.2655  -103.3340   -95.8298 H6            1 RES     
    4258 H6         139.0698  -103.2651   -98.1673 H6            1 RES     
    4259 H6         139.7407  -104.6681   -97.2907 H6            1 RES     
    4260 H6         141.9270  -103.5428   -97.0282 H6            1 RES     
    4261 H6         141.4193  -103.6507   -98.7448 H6            1 RES     
    4262 H6         141.1600  -101.1546   -96.9392 H6            1 RES     
    4263 H6         140.6711  -101.2284   -98.6706 H6            1 RES     
    4264 H6         142.8721  -100.1166   -98.2375 H6            1 RES     
    4265 H6         143.5034  -101.6343   -97.5021 H6            1 RES     
    4266 H6         143.2283  -102.7863   -99.7639 H6            1 RES     
    4267 H6         142.5128  -101.2650  -100.4119 H6            1 RES     
    4268 H6         144.6659  -100.0609  -100.0106 H6            1 RES     
    4269 H6         144.8268  -101.4609  -101.1301 H6            1 RES     
    4270 H6         145.6547  -101.4634   -98.1546 H6            1 RES     
    4271 H6         145.7506  -102.8708   -99.2906 H6            1 RES     
    4272 H6         146.7365  -101.3883   -99.5828 H6            1 RES     
    4273 H6         140.8931  -103.1264   -92.1413 H6            1 RES     
    4274 H6         141.4353  -104.4032   -91.1038 H6            1 RES     
    4275 H6         138.7400  -103.3223   -91.4352 H6            1 RES     
    4276 H6         138.6670  -105.0013   -92.0783 H6            1 RES     
    4277 H6         139.7654  -104.1316   -89.2861 H6            1 RES     
    4278 H6         139.8377  -105.7185   -90.0372 H6            1 RES     
    4279 H6         137.4492  -105.9956   -90.1074 H6            1 RES     
    4280 H6         138.2006  -105.9437   -88.5002 H6            1 RES     
    4281 H6         137.4926  -103.6762   -88.1146 H6            1 RES     
    4282 H6         136.6522  -103.5850   -89.7162 H6            1 RES     
    4283 H6         135.2050  -105.5015   -89.1331 H6            1 RES     
    4284 H6         136.0556  -105.7646   -87.5727 H6            1 RES     
    4285 H6         133.8607  -104.6691   -87.3016 H6            1 RES     
    4286 H6         134.4152  -103.2500   -88.2663 H6            1 RES     
    4287 H6         136.1997  -102.8223   -86.5025 H6            1 RES     
    4288 H6         134.5561  -102.8727   -85.7804 H6            1 RES     
    4289 H6         135.6468  -104.2968   -85.6132 H6            1 RES     
    4290 C0         141.8714  -109.0488   -92.5730 C0            1 RES     
    4291 C0         141.0896  -109.6510   -93.8269 C0            1 RES     
    4292 C0         141.0819  -111.2056   -93.6383 C0            1 RES     
    4293 C0         140.6146  -112.0228   -94.8597 C0            1 RES     
    4294 C0         140.6002  -113.5431   -94.6220 C0            1 RES     
    4295 C0         141.9560  -114.1762   -94.2611 C0            1 RES     
    4296 C0         143.0989  -113.8791   -95.2460 C0            1 RES     
    4297 C0         142.7930  -114.3171   -96.6892 C0            1 RES     
    4298 C0         143.9429  -114.0086   -97.6617 C0            1 RES     
    4299 C0         145.2086  -114.8358   -97.3741 C0            1 RES     
    4300 C0         146.3154  -114.6220   -98.4184 C0            1 RES     
    4301 C0         146.8801  -113.2014   -98.4170 C0            1 RES     
    4302 C0         139.6922  -109.1331   -94.3709 C0            1 RES     
    4303 C0         138.3772  -109.3067   -93.5593 C0            1 RES     
    4304 C0         137.8857  -107.9817   -92.9494 C0            1 RES     
    4305 C0         136.6398  -108.0521   -92.0819 C0            1 RES     
    4306 C0         135.3131  -108.2714   -92.7953 C0            1 RES     
    4307 C0         134.2015  -108.1300   -91.7354 C0            1 RES     
    4308 C0         132.7795  -108.1674   -92.2982 C0            1 RES     
    4309 C0         132.4630  -106.9432   -93.1585 C0            1 RES     
    4310 H6         141.7360  -109.7360   -91.7055 H6            1 RES     
    4311 H6         142.9445  -109.2305   -92.8086 H6            1 RES     
    4312 H6         141.7611  -109.4259   -94.6875 H6            1 RES     
    4313 H6         140.4346  -111.4629   -92.7722 H6            1 RES     
    4314 H6         142.1190  -111.5229   -93.3959 H6            1 RES     
    4315 H6         141.2546  -111.7766   -95.7328 H6            1 RES     
    4316 H6         139.5658  -111.7728   -95.1115 H6            1 RES     
    4317 H6         140.2118  -114.0256   -95.5442 H6            1 RES     
    4318 H6         139.8796  -113.7792   -93.8083 H6            1 RES     
    4319 H6         141.8101  -115.2765   -94.1924 H6            1 RES     
    4320 H6         142.2683  -113.8246   -93.2546 H6            1 RES     
    4321 H6         143.3262  -112.7916   -95.2343 H6            1 RES     
    4322 H6         143.9926  -114.4159   -94.8675 H6            1 RES     
    4323 H6         141.9067  -113.7571   -97.0541 H6            1 RES     
    4324 H6         142.5556  -115.4025   -96.7203 H6            1 RES     
    4325 H6         143.5920  -114.2574   -98.6869 H6            1 RES     
    4326 H6         144.1622  -112.9204   -97.6236 H6            1 RES     
    4327 H6         145.6186  -114.6004   -96.3704 H6            1 RES     
    4328 H6         144.9297  -115.9119   -97.3948 H6            1 RES     
    4329 H6         145.9307  -114.8702   -99.4314 H6            1 RES     
    4330 H6         147.1479  -115.3200   -98.1841 H6            1 RES     
    4331 H6         146.1058  -112.4591   -98.6975 H6            1 RES     
    4332 H6         147.2861  -112.9506   -97.4139 H6            1 RES     
    4333 H6         147.7030  -113.1336   -99.1593 H6            1 RES     
    4334 H6         139.5323  -109.6962   -95.3087 H6            1 RES     
    4335 H6         139.7476  -108.1272   -94.8279 H6            1 RES     
    4336 H6         137.5747  -109.5947   -94.2736 H6            1 RES     
    4337 H6         138.4732  -110.1267   -92.8191 H6            1 RES     
    4338 H6         137.7479  -107.2180   -93.7482 H6            1 RES     
    4339 H6         138.6243  -107.6041   -92.2512 H6            1 RES     
    4340 H6         136.7873  -108.7945   -91.2677 H6            1 RES     
    4341 H6         136.5469  -107.0458   -91.6413 H6            1 RES     
    4342 H6         135.2128  -107.4853   -93.5734 H6            1 RES     
    4343 H6         135.2765  -109.2705   -93.2773 H6            1 RES     
    4344 H6         134.3186  -108.9573   -91.0012 H6            1 RES     
    4345 H6         134.3161  -107.1701   -91.1810 H6            1 RES     
    4346 H6         132.0811  -108.1559   -91.4327 H6            1 RES     
    4347 H6         132.6199  -109.1026   -92.8706 H6            1 RES     
    4348 H6         133.0974  -106.9109   -94.0665 H6            1 RES     
    4349 H6         131.4015  -106.9848   -93.4781 H6            1 RES     
    4350 H6         132.6172  -106.0105   -92.5727 H6            1 RES     
    4351 H5           6.3992     8.1748    11.5229 H5            1 RES     
    4352 H5         150.3281  -104.8087   -91.7244 H5            1 RES     
@<TRIPOS>BOND
       1        1        2 1
       2        1        8 1
       3        1       24 1
       4        1       85 1
       5        2        3 1
       6        2        6 1
       7        3        4 1
       8        3        7 1
       9        4        5 1
      10        5        6 1
      11        5     4351 1
      12        6       12 1
      13        7        8 1
      14        7       11 1
      15        8        9 1
      16        9       10 1
      17        9       13 1
      18       10       11 1
      19       10       16 1
      20       14       15 1
      21       14       22 1
      22       15       16 1
      23       15       23 1
      24       16       17 1
      25       17       18 1
      26       17       21 1
      27       18       19 1
      28       19       20 1
      29       20       21 1
      30       21       22 1
      31       22      150 1
      32       24       25 1
      33       24       44 1
      34       24       45 1
      35       25       26 1
      36       25       36 1
      37       25       46 1
      38       26       27 1
      39       26       47 1
      40       26       48 1
      41       27       28 1
      42       27       49 1
      43       27       50 1
      44       28       29 1
      45       28       51 1
      46       28       52 1
      47       29       30 1
      48       29       53 1
      49       29       54 1
      50       30       31 1
      51       30       55 1
      52       30       56 1
      53       31       32 1
      54       31       57 1
      55       31       58 1
      56       32       33 1
      57       32       59 1
      58       32       60 1
      59       33       34 1
      60       33       61 1
      61       33       62 1
      62       34       35 1
      63       34       63 1
      64       34       64 1
      65       35       65 1
      66       35       66 1
      67       35       67 1
      68       36       37 1
      69       36       68 1
      70       36       69 1
      71       37       38 1
      72       37       70 1
      73       37       71 1
      74       38       39 1
      75       38       72 1
      76       38       73 1
      77       39       40 1
      78       39       74 1
      79       39       75 1
      80       40       41 1
      81       40       76 1
      82       40       77 1
      83       41       42 1
      84       41       78 1
      85       41       79 1
      86       42       43 1
      87       42       80 1
      88       42       81 1
      89       43       82 1
      90       43       83 1
      91       43       84 1
      92       85       86 1
      93       85      105 1
      94       85      106 1
      95       86       87 1
      96       86       97 1
      97       86      107 1
      98       87       88 1
      99       87      108 1
     100       87      109 1
     101       88       89 1
     102       88      110 1
     103       88      111 1
     104       89       90 1
     105       89      112 1
     106       89      113 1
     107       90       91 1
     108       90      114 1
     109       90      115 1
     110       91       92 1
     111       91      116 1
     112       91      117 1
     113       92       93 1
     114       92      118 1
     115       92      119 1
     116       93       94 1
     117       93      120 1
     118       93      121 1
     119       94       95 1
     120       94      122 1
     121       94      123 1
     122       95       96 1
     123       95      124 1
     124       95      125 1
     125       96      126 1
     126       96      127 1
     127       96      128 1
     128       97       98 1
     129       97      129 1
     130       97      130 1
     131       98       99 1
     132       98      131 1
     133       98      132 1
     134       99      100 1
     135       99      133 1
     136       99      134 1
     137      100      101 1
     138      100      135 1
     139      100      136 1
     140      101      102 1
     141      101      137 1
     142      101      138 1
     143      102      103 1
     144      102      139 1
     145      102      140 1
     146      103      104 1
     147      103      141 1
     148      103      142 1
     149      104      143 1
     150      104      144 1
     151      104      145 1
     152      146      147 1
     153      146      153 1
     154      146      169 1
     155      146      230 1
     156      147      148 1
     157      147      151 1
     158      148      149 1
     159      148      152 1
     160      149      150 1
     161      150      151 1
     162      151      157 1
     163      152      153 1
     164      152      156 1
     165      153      154 1
     166      154      155 1
     167      154      158 1
     168      155      156 1
     169      155      161 1
     170      159      160 1
     171      159      167 1
     172      160      161 1
     173      160      168 1
     174      161      162 1
     175      162      163 1
     176      162      166 1
     177      163      164 1
     178      164      165 1
     179      165      166 1
     180      166      167 1
     181      167      295 1
     182      169      170 1
     183      169      189 1
     184      169      190 1
     185      170      171 1
     186      170      181 1
     187      170      191 1
     188      171      172 1
     189      171      192 1
     190      171      193 1
     191      172      173 1
     192      172      194 1
     193      172      195 1
     194      173      174 1
     195      173      196 1
     196      173      197 1
     197      174      175 1
     198      174      198 1
     199      174      199 1
     200      175      176 1
     201      175      200 1
     202      175      201 1
     203      176      177 1
     204      176      202 1
     205      176      203 1
     206      177      178 1
     207      177      204 1
     208      177      205 1
     209      178      179 1
     210      178      206 1
     211      178      207 1
     212      179      180 1
     213      179      208 1
     214      179      209 1
     215      180      210 1
     216      180      211 1
     217      180      212 1
     218      181      182 1
     219      181      213 1
     220      181      214 1
     221      182      183 1
     222      182      215 1
     223      182      216 1
     224      183      184 1
     225      183      217 1
     226      183      218 1
     227      184      185 1
     228      184      219 1
     229      184      220 1
     230      185      186 1
     231      185      221 1
     232      185      222 1
     233      186      187 1
     234      186      223 1
     235      186      224 1
     236      187      188 1
     237      187      225 1
     238      187      226 1
     239      188      227 1
     240      188      228 1
     241      188      229 1
     242      230      231 1
     243      230      250 1
     244      230      251 1
     245      231      232 1
     246      231      242 1
     247      231      252 1
     248      232      233 1
     249      232      253 1
     250      232      254 1
     251      233      234 1
     252      233      255 1
     253      233      256 1
     254      234      235 1
     255      234      257 1
     256      234      258 1
     257      235      236 1
     258      235      259 1
     259      235      260 1
     260      236      237 1
     261      236      261 1
     262      236      262 1
     263      237      238 1
     264      237      263 1
     265      237      264 1
     266      238      239 1
     267      238      265 1
     268      238      266 1
     269      239      240 1
     270      239      267 1
     271      239      268 1
     272      240      241 1
     273      240      269 1
     274      240      270 1
     275      241      271 1
     276      241      272 1
     277      241      273 1
     278      242      243 1
     279      242      274 1
     280      242      275 1
     281      243      244 1
     282      243      276 1
     283      243      277 1
     284      244      245 1
     285      244      278 1
     286      244      279 1
     287      245      246 1
     288      245      280 1
     289      245      281 1
     290      246      247 1
     291      246      282 1
     292      246      283 1
     293      247      248 1
     294      247      284 1
     295      247      285 1
     296      248      249 1
     297      248      286 1
     298      248      287 1
     299      249      288 1
     300      249      289 1
     301      249      290 1
     302      291      292 1
     303      291      298 1
     304      291      314 1
     305      291      375 1
     306      292      293 1
     307      292      296 1
     308      293      294 1
     309      293      297 1
     310      294      295 1
     311      295      296 1
     312      296      302 1
     313      297      298 1
     314      297      301 1
     315      298      299 1
     316      299      300 1
     317      299      303 1
     318      300      301 1
     319      300      306 1
     320      304      305 1
     321      304      312 1
     322      305      306 1
     323      305      313 1
     324      306      307 1
     325      307      308 1
     326      307      311 1
     327      308      309 1
     328      309      310 1
     329      310      311 1
     330      311      312 1
     331      312      440 1
     332      314      315 1
     333      314      334 1
     334      314      335 1
     335      315      316 1
     336      315      326 1
     337      315      336 1
     338      316      317 1
     339      316      337 1
     340      316      338 1
     341      317      318 1
     342      317      339 1
     343      317      340 1
     344      318      319 1
     345      318      341 1
     346      318      342 1
     347      319      320 1
     348      319      343 1
     349      319      344 1
     350      320      321 1
     351      320      345 1
     352      320      346 1
     353      321      322 1
     354      321      347 1
     355      321      348 1
     356      322      323 1
     357      322      349 1
     358      322      350 1
     359      323      324 1
     360      323      351 1
     361      323      352 1
     362      324      325 1
     363      324      353 1
     364      324      354 1
     365      325      355 1
     366      325      356 1
     367      325      357 1
     368      326      327 1
     369      326      358 1
     370      326      359 1
     371      327      328 1
     372      327      360 1
     373      327      361 1
     374      328      329 1
     375      328      362 1
     376      328      363 1
     377      329      330 1
     378      329      364 1
     379      329      365 1
     380      330      331 1
     381      330      366 1
     382      330      367 1
     383      331      332 1
     384      331      368 1
     385      331      369 1
     386      332      333 1
     387      332      370 1
     388      332      371 1
     389      333      372 1
     390      333      373 1
     391      333      374 1
     392      375      376 1
     393      375      395 1
     394      375      396 1
     395      376      377 1
     396      376      387 1
     397      376      397 1
     398      377      378 1
     399      377      398 1
     400      377      399 1
     401      378      379 1
     402      378      400 1
     403      378      401 1
     404      379      380 1
     405      379      402 1
     406      379      403 1
     407      380      381 1
     408      380      404 1
     409      380      405 1
     410      381      382 1
     411      381      406 1
     412      381      407 1
     413      382      383 1
     414      382      408 1
     415      382      409 1
     416      383      384 1
     417      383      410 1
     418      383      411 1
     419      384      385 1
     420      384      412 1
     421      384      413 1
     422      385      386 1
     423      385      414 1
     424      385      415 1
     425      386      416 1
     426      386      417 1
     427      386      418 1
     428      387      388 1
     429      387      419 1
     430      387      420 1
     431      388      389 1
     432      388      421 1
     433      388      422 1
     434      389      390 1
     435      389      423 1
     436      389      424 1
     437      390      391 1
     438      390      425 1
     439      390      426 1
     440      391      392 1
     441      391      427 1
     442      391      428 1
     443      392      393 1
     444      392      429 1
     445      392      430 1
     446      393      394 1
     447      393      431 1
     448      393      432 1
     449      394      433 1
     450      394      434 1
     451      394      435 1
     452      436      437 1
     453      436      443 1
     454      436      459 1
     455      436      520 1
     456      437      438 1
     457      437      441 1
     458      438      439 1
     459      438      442 1
     460      439      440 1
     461      440      441 1
     462      441      447 1
     463      442      443 1
     464      442      446 1
     465      443      444 1
     466      444      445 1
     467      444      448 1
     468      445      446 1
     469      445      451 1
     470      449      450 1
     471      449      457 1
     472      450      451 1
     473      450      458 1
     474      451      452 1
     475      452      453 1
     476      452      456 1
     477      453      454 1
     478      454      455 1
     479      455      456 1
     480      456      457 1
     481      457      585 1
     482      459      460 1
     483      459      479 1
     484      459      480 1
     485      460      461 1
     486      460      471 1
     487      460      481 1
     488      461      462 1
     489      461      482 1
     490      461      483 1
     491      462      463 1
     492      462      484 1
     493      462      485 1
     494      463      464 1
     495      463      486 1
     496      463      487 1
     497      464      465 1
     498      464      488 1
     499      464      489 1
     500      465      466 1
     501      465      490 1
     502      465      491 1
     503      466      467 1
     504      466      492 1
     505      466      493 1
     506      467      468 1
     507      467      494 1
     508      467      495 1
     509      468      469 1
     510      468      496 1
     511      468      497 1
     512      469      470 1
     513      469      498 1
     514      469      499 1
     515      470      500 1
     516      470      501 1
     517      470      502 1
     518      471      472 1
     519      471      503 1
     520      471      504 1
     521      472      473 1
     522      472      505 1
     523      472      506 1
     524      473      474 1
     525      473      507 1
     526      473      508 1
     527      474      475 1
     528      474      509 1
     529      474      510 1
     530      475      476 1
     531      475      511 1
     532      475      512 1
     533      476      477 1
     534      476      513 1
     535      476      514 1
     536      477      478 1
     537      477      515 1
     538      477      516 1
     539      478      517 1
     540      478      518 1
     541      478      519 1
     542      520      521 1
     543      520      540 1
     544      520      541 1
     545      521      522 1
     546      521      532 1
     547      521      542 1
     548      522      523 1
     549      522      543 1
     550      522      544 1
     551      523      524 1
     552      523      545 1
     553      523      546 1
     554      524      525 1
     555      524      547 1
     556      524      548 1
     557      525      526 1
     558      525      549 1
     559      525      550 1
     560      526      527 1
     561      526      551 1
     562      526      552 1
     563      527      528 1
     564      527      553 1
     565      527      554 1
     566      528      529 1
     567      528      555 1
     568      528      556 1
     569      529      530 1
     570      529      557 1
     571      529      558 1
     572      530      531 1
     573      530      559 1
     574      530      560 1
     575      531      561 1
     576      531      562 1
     577      531      563 1
     578      532      533 1
     579      532      564 1
     580      532      565 1
     581      533      534 1
     582      533      566 1
     583      533      567 1
     584      534      535 1
     585      534      568 1
     586      534      569 1
     587      535      536 1
     588      535      570 1
     589      535      571 1
     590      536      537 1
     591      536      572 1
     592      536      573 1
     593      537      538 1
     594      537      574 1
     595      537      575 1
     596      538      539 1
     597      538      576 1
     598      538      577 1
     599      539      578 1
     600      539      579 1
     601      539      580 1
     602      581      582 1
     603      581      588 1
     604      581      604 1
     605      581      665 1
     606      582      583 1
     607      582      586 1
     608      583      584 1
     609      583      587 1
     610      584      585 1
     611      585      586 1
     612      586      592 1
     613      587      588 1
     614      587      591 1
     615      588      589 1
     616      589      590 1
     617      589      593 1
     618      590      591 1
     619      590      596 1
     620      594      595 1
     621      594      602 1
     622      595      596 1
     623      595      603 1
     624      596      597 1
     625      597      598 1
     626      597      601 1
     627      598      599 1
     628      599      600 1
     629      600      601 1
     630      601      602 1
     631      602      730 1
     632      604      605 1
     633      604      624 1
     634      604      625 1
     635      605      606 1
     636      605      616 1
     637      605      626 1
     638      606      607 1
     639      606      627 1
     640      606      628 1
     641      607      608 1
     642      607      629 1
     643      607      630 1
     644      608      609 1
     645      608      631 1
     646      608      632 1
     647      609      610 1
     648      609      633 1
     649      609      634 1
     650      610      611 1
     651      610      635 1
     652      610      636 1
     653      611      612 1
     654      611      637 1
     655      611      638 1
     656      612      613 1
     657      612      639 1
     658      612      640 1
     659      613      614 1
     660      613      641 1
     661      613      642 1
     662      614      615 1
     663      614      643 1
     664      614      644 1
     665      615      645 1
     666      615      646 1
     667      615      647 1
     668      616      617 1
     669      616      648 1
     670      616      649 1
     671      617      618 1
     672      617      650 1
     673      617      651 1
     674      618      619 1
     675      618      652 1
     676      618      653 1
     677      619      620 1
     678      619      654 1
     679      619      655 1
     680      620      621 1
     681      620      656 1
     682      620      657 1
     683      621      622 1
     684      621      658 1
     685      621      659 1
     686      622      623 1
     687      622      660 1
     688      622      661 1
     689      623      662 1
     690      623      663 1
     691      623      664 1
     692      665      666 1
     693      665      685 1
     694      665      686 1
     695      666      667 1
     696      666      677 1
     697      666      687 1
     698      667      668 1
     699      667      688 1
     700      667      689 1
     701      668      669 1
     702      668      690 1
     703      668      691 1
     704      669      670 1
     705      669      692 1
     706      669      693 1
     707      670      671 1
     708      670      694 1
     709      670      695 1
     710      671      672 1
     711      671      696 1
     712      671      697 1
     713      672      673 1
     714      672      698 1
     715      672      699 1
     716      673      674 1
     717      673      700 1
     718      673      701 1
     719      674      675 1
     720      674      702 1
     721      674      703 1
     722      675      676 1
     723      675      704 1
     724      675      705 1
     725      676      706 1
     726      676      707 1
     727      676      708 1
     728      677      678 1
     729      677      709 1
     730      677      710 1
     731      678      679 1
     732      678      711 1
     733      678      712 1
     734      679      680 1
     735      679      713 1
     736      679      714 1
     737      680      681 1
     738      680      715 1
     739      680      716 1
     740      681      682 1
     741      681      717 1
     742      681      718 1
     743      682      683 1
     744      682      719 1
     745      682      720 1
     746      683      684 1
     747      683      721 1
     748      683      722 1
     749      684      723 1
     750      684      724 1
     751      684      725 1
     752      726      727 1
     753      726      733 1
     754      726      749 1
     755      726      810 1
     756      727      728 1
     757      727      731 1
     758      728      729 1
     759      728      732 1
     760      729      730 1
     761      730      731 1
     762      731      737 1
     763      732      733 1
     764      732      736 1
     765      733      734 1
     766      734      735 1
     767      734      738 1
     768      735      736 1
     769      735      741 1
     770      739      740 1
     771      739      747 1
     772      740      741 1
     773      740      748 1
     774      741      742 1
     775      742      743 1
     776      742      746 1
     777      743      744 1
     778      744      745 1
     779      745      746 1
     780      746      747 1
     781      747      875 1
     782      749      750 1
     783      749      769 1
     784      749      770 1
     785      750      751 1
     786      750      761 1
     787      750      771 1
     788      751      752 1
     789      751      772 1
     790      751      773 1
     791      752      753 1
     792      752      774 1
     793      752      775 1
     794      753      754 1
     795      753      776 1
     796      753      777 1
     797      754      755 1
     798      754      778 1
     799      754      779 1
     800      755      756 1
     801      755      780 1
     802      755      781 1
     803      756      757 1
     804      756      782 1
     805      756      783 1
     806      757      758 1
     807      757      784 1
     808      757      785 1
     809      758      759 1
     810      758      786 1
     811      758      787 1
     812      759      760 1
     813      759      788 1
     814      759      789 1
     815      760      790 1
     816      760      791 1
     817      760      792 1
     818      761      762 1
     819      761      793 1
     820      761      794 1
     821      762      763 1
     822      762      795 1
     823      762      796 1
     824      763      764 1
     825      763      797 1
     826      763      798 1
     827      764      765 1
     828      764      799 1
     829      764      800 1
     830      765      766 1
     831      765      801 1
     832      765      802 1
     833      766      767 1
     834      766      803 1
     835      766      804 1
     836      767      768 1
     837      767      805 1
     838      767      806 1
     839      768      807 1
     840      768      808 1
     841      768      809 1
     842      810      811 1
     843      810      830 1
     844      810      831 1
     845      811      812 1
     846      811      822 1
     847      811      832 1
     848      812      813 1
     849      812      833 1
     850      812      834 1
     851      813      814 1
     852      813      835 1
     853      813      836 1
     854      814      815 1
     855      814      837 1
     856      814      838 1
     857      815      816 1
     858      815      839 1
     859      815      840 1
     860      816      817 1
     861      816      841 1
     862      816      842 1
     863      817      818 1
     864      817      843 1
     865      817      844 1
     866      818      819 1
     867      818      845 1
     868      818      846 1
     869      819      820 1
     870      819      847 1
     871      819      848 1
     872      820      821 1
     873      820      849 1
     874      820      850 1
     875      821      851 1
     876      821      852 1
     877      821      853 1
     878      822      823 1
     879      822      854 1
     880      822      855 1
     881      823      824 1
     882      823      856 1
     883      823      857 1
     884      824      825 1
     885      824      858 1
     886      824      859 1
     887      825      826 1
     888      825      860 1
     889      825      861 1
     890      826      827 1
     891      826      862 1
     892      826      863 1
     893      827      828 1
     894      827      864 1
     895      827      865 1
     896      828      829 1
     897      828      866 1
     898      828      867 1
     899      829      868 1
     900      829      869 1
     901      829      870 1
     902      871      872 1
     903      871      878 1
     904      871      894 1
     905      871      955 1
     906      872      873 1
     907      872      876 1
     908      873      874 1
     909      873      877 1
     910      874      875 1
     911      875      876 1
     912      876      882 1
     913      877      878 1
     914      877      881 1
     915      878      879 1
     916      879      880 1
     917      879      883 1
     918      880      881 1
     919      880      886 1
     920      884      885 1
     921      884      892 1
     922      885      886 1
     923      885      893 1
     924      886      887 1
     925      887      888 1
     926      887      891 1
     927      888      889 1
     928      889      890 1
     929      890      891 1
     930      891      892 1
     931      892     1020 1
     932      894      895 1
     933      894      914 1
     934      894      915 1
     935      895      896 1
     936      895      906 1
     937      895      916 1
     938      896      897 1
     939      896      917 1
     940      896      918 1
     941      897      898 1
     942      897      919 1
     943      897      920 1
     944      898      899 1
     945      898      921 1
     946      898      922 1
     947      899      900 1
     948      899      923 1
     949      899      924 1
     950      900      901 1
     951      900      925 1
     952      900      926 1
     953      901      902 1
     954      901      927 1
     955      901      928 1
     956      902      903 1
     957      902      929 1
     958      902      930 1
     959      903      904 1
     960      903      931 1
     961      903      932 1
     962      904      905 1
     963      904      933 1
     964      904      934 1
     965      905      935 1
     966      905      936 1
     967      905      937 1
     968      906      907 1
     969      906      938 1
     970      906      939 1
     971      907      908 1
     972      907      940 1
     973      907      941 1
     974      908      909 1
     975      908      942 1
     976      908      943 1
     977      909      910 1
     978      909      944 1
     979      909      945 1
     980      910      911 1
     981      910      946 1
     982      910      947 1
     983      911      912 1
     984      911      948 1
     985      911      949 1
     986      912      913 1
     987      912      950 1
     988      912      951 1
     989      913      952 1
     990      913      953 1
     991      913      954 1
     992      955      956 1
     993      955      975 1
     994      955      976 1
     995      956      957 1
     996      956      967 1
     997      956      977 1
     998      957      958 1
     999      957      978 1
    1000      957      979 1
    1001      958      959 1
    1002      958      980 1
    1003      958      981 1
    1004      959      960 1
    1005      959      982 1
    1006      959      983 1
    1007      960      961 1
    1008      960      984 1
    1009      960      985 1
    1010      961      962 1
    1011      961      986 1
    1012      961      987 1
    1013      962      963 1
    1014      962      988 1
    1015      962      989 1
    1016      963      964 1
    1017      963      990 1
    1018      963      991 1
    1019      964      965 1
    1020      964      992 1
    1021      964      993 1
    1022      965      966 1
    1023      965      994 1
    1024      965      995 1
    1025      966      996 1
    1026      966      997 1
    1027      966      998 1
    1028      967      968 1
    1029      967      999 1
    1030      967     1000 1
    1031      968      969 1
    1032      968     1001 1
    1033      968     1002 1
    1034      969      970 1
    1035      969     1003 1
    1036      969     1004 1
    1037      970      971 1
    1038      970     1005 1
    1039      970     1006 1
    1040      971      972 1
    1041      971     1007 1
    1042      971     1008 1
    1043      972      973 1
    1044      972     1009 1
    1045      972     1010 1
    1046      973      974 1
    1047      973     1011 1
    1048      973     1012 1
    1049      974     1013 1
    1050      974     1014 1
    1051      974     1015 1
    1052     1016     1017 1
    1053     1016     1023 1
    1054     1016     1039 1
    1055     1016     1100 1
    1056     1017     1018 1
    1057     1017     1021 1
    1058     1018     1019 1
    1059     1018     1022 1
    1060     1019     1020 1
    1061     1020     1021 1
    1062     1021     1027 1
    1063     1022     1023 1
    1064     1022     1026 1
    1065     1023     1024 1
    1066     1024     1025 1
    1067     1024     1028 1
    1068     1025     1026 1
    1069     1025     1031 1
    1070     1029     1030 1
    1071     1029     1037 1
    1072     1030     1031 1
    1073     1030     1038 1
    1074     1031     1032 1
    1075     1032     1033 1
    1076     1032     1036 1
    1077     1033     1034 1
    1078     1034     1035 1
    1079     1035     1036 1
    1080     1036     1037 1
    1081     1037     1165 1
    1082     1039     1040 1
    1083     1039     1059 1
    1084     1039     1060 1
    1085     1040     1041 1
    1086     1040     1051 1
    1087     1040     1061 1
    1088     1041     1042 1
    1089     1041     1062 1
    1090     1041     1063 1
    1091     1042     1043 1
    1092     1042     1064 1
    1093     1042     1065 1
    1094     1043     1044 1
    1095     1043     1066 1
    1096     1043     1067 1
    1097     1044     1045 1
    1098     1044     1068 1
    1099     1044     1069 1
    1100     1045     1046 1
    1101     1045     1070 1
    1102     1045     1071 1
    1103     1046     1047 1
    1104     1046     1072 1
    1105     1046     1073 1
    1106     1047     1048 1
    1107     1047     1074 1
    1108     1047     1075 1
    1109     1048     1049 1
    1110     1048     1076 1
    1111     1048     1077 1
    1112     1049     1050 1
    1113     1049     1078 1
    1114     1049     1079 1
    1115     1050     1080 1
    1116     1050     1081 1
    1117     1050     1082 1
    1118     1051     1052 1
    1119     1051     1083 1
    1120     1051     1084 1
    1121     1052     1053 1
    1122     1052     1085 1
    1123     1052     1086 1
    1124     1053     1054 1
    1125     1053     1087 1
    1126     1053     1088 1
    1127     1054     1055 1
    1128     1054     1089 1
    1129     1054     1090 1
    1130     1055     1056 1
    1131     1055     1091 1
    1132     1055     1092 1
    1133     1056     1057 1
    1134     1056     1093 1
    1135     1056     1094 1
    1136     1057     1058 1
    1137     1057     1095 1
    1138     1057     1096 1
    1139     1058     1097 1
    1140     1058     1098 1
    1141     1058     1099 1
    1142     1100     1101 1
    1143     1100     1120 1
    1144     1100     1121 1
    1145     1101     1102 1
    1146     1101     1112 1
    1147     1101     1122 1
    1148     1102     1103 1
    1149     1102     1123 1
    1150     1102     1124 1
    1151     1103     1104 1
    1152     1103     1125 1
    1153     1103     1126 1
    1154     1104     1105 1
    1155     1104     1127 1
    1156     1104     1128 1
    1157     1105     1106 1
    1158     1105     1129 1
    1159     1105     1130 1
    1160     1106     1107 1
    1161     1106     1131 1
    1162     1106     1132 1
    1163     1107     1108 1
    1164     1107     1133 1
    1165     1107     1134 1
    1166     1108     1109 1
    1167     1108     1135 1
    1168     1108     1136 1
    1169     1109     1110 1
    1170     1109     1137 1
    1171     1109     1138 1
    1172     1110     1111 1
    1173     1110     1139 1
    1174     1110     1140 1
    1175     1111     1141 1
    1176     1111     1142 1
    1177     1111     1143 1
    1178     1112     1113 1
    1179     1112     1144 1
    1180     1112     1145 1
    1181     1113     1114 1
    1182     1113     1146 1
    1183     1113     1147 1
    1184     1114     1115 1
    1185     1114     1148 1
    1186     1114     1149 1
    1187     1115     1116 1
    1188     1115     1150 1
    1189     1115     1151 1
    1190     1116     1117 1
    1191     1116     1152 1
    1192     1116     1153 1
    1193     1117     1118 1
    1194     1117     1154 1
    1195     1117     1155 1
    1196     1118     1119 1
    1197     1118     1156 1
    1198     1118     1157 1
    1199     1119     1158 1
    1200     1119     1159 1
    1201     1119     1160 1
    1202     1161     1162 1
    1203     1161     1168 1
    1204     1161     1184 1
    1205     1161     1245 1
    1206     1162     1163 1
    1207     1162     1166 1
    1208     1163     1164 1
    1209     1163     1167 1
    1210     1164     1165 1
    1211     1165     1166 1
    1212     1166     1172 1
    1213     1167     1168 1
    1214     1167     1171 1
    1215     1168     1169 1
    1216     1169     1170 1
    1217     1169     1173 1
    1218     1170     1171 1
    1219     1170     1176 1
    1220     1174     1175 1
    1221     1174     1182 1
    1222     1175     1176 1
    1223     1175     1183 1
    1224     1176     1177 1
    1225     1177     1178 1
    1226     1177     1181 1
    1227     1178     1179 1
    1228     1179     1180 1
    1229     1180     1181 1
    1230     1181     1182 1
    1231     1182     1310 1
    1232     1184     1185 1
    1233     1184     1204 1
    1234     1184     1205 1
    1235     1185     1186 1
    1236     1185     1196 1
    1237     1185     1206 1
    1238     1186     1187 1
    1239     1186     1207 1
    1240     1186     1208 1
    1241     1187     1188 1
    1242     1187     1209 1
    1243     1187     1210 1
    1244     1188     1189 1
    1245     1188     1211 1
    1246     1188     1212 1
    1247     1189     1190 1
    1248     1189     1213 1
    1249     1189     1214 1
    1250     1190     1191 1
    1251     1190     1215 1
    1252     1190     1216 1
    1253     1191     1192 1
    1254     1191     1217 1
    1255     1191     1218 1
    1256     1192     1193 1
    1257     1192     1219 1
    1258     1192     1220 1
    1259     1193     1194 1
    1260     1193     1221 1
    1261     1193     1222 1
    1262     1194     1195 1
    1263     1194     1223 1
    1264     1194     1224 1
    1265     1195     1225 1
    1266     1195     1226 1
    1267     1195     1227 1
    1268     1196     1197 1
    1269     1196     1228 1
    1270     1196     1229 1
    1271     1197     1198 1
    1272     1197     1230 1
    1273     1197     1231 1
    1274     1198     1199 1
    1275     1198     1232 1
    1276     1198     1233 1
    1277     1199     1200 1
    1278     1199     1234 1
    1279     1199     1235 1
    1280     1200     1201 1
    1281     1200     1236 1
    1282     1200     1237 1
    1283     1201     1202 1
    1284     1201     1238 1
    1285     1201     1239 1
    1286     1202     1203 1
    1287     1202     1240 1
    1288     1202     1241 1
    1289     1203     1242 1
    1290     1203     1243 1
    1291     1203     1244 1
    1292     1245     1246 1
    1293     1245     1265 1
    1294     1245     1266 1
    1295     1246     1247 1
    1296     1246     1257 1
    1297     1246     1267 1
    1298     1247     1248 1
    1299     1247     1268 1
    1300     1247     1269 1
    1301     1248     1249 1
    1302     1248     1270 1
    1303     1248     1271 1
    1304     1249     1250 1
    1305     1249     1272 1
    1306     1249     1273 1
    1307     1250     1251 1
    1308     1250     1274 1
    1309     1250     1275 1
    1310     1251     1252 1
    1311     1251     1276 1
    1312     1251     1277 1
    1313     1252     1253 1
    1314     1252     1278 1
    1315     1252     1279 1
    1316     1253     1254 1
    1317     1253     1280 1
    1318     1253     1281 1
    1319     1254     1255 1
    1320     1254     1282 1
    1321     1254     1283 1
    1322     1255     1256 1
    1323     1255     1284 1
    1324     1255     1285 1
    1325     1256     1286 1
    1326     1256     1287 1
    1327     1256     1288 1
    1328     1257     1258 1
    1329     1257     1289 1
    1330     1257     1290 1
    1331     1258     1259 1
    1332     1258     1291 1
    1333     1258     1292 1
    1334     1259     1260 1
    1335     1259     1293 1
    1336     1259     1294 1
    1337     1260     1261 1
    1338     1260     1295 1
    1339     1260     1296 1
    1340     1261     1262 1
    1341     1261     1297 1
    1342     1261     1298 1
    1343     1262     1263 1
    1344     1262     1299 1
    1345     1262     1300 1
    1346     1263     1264 1
    1347     1263     1301 1
    1348     1263     1302 1
    1349     1264     1303 1
    1350     1264     1304 1
    1351     1264     1305 1
    1352     1306     1307 1
    1353     1306     1313 1
    1354     1306     1329 1
    1355     1306     1390 1
    1356     1307     1308 1
    1357     1307     1311 1
    1358     1308     1309 1
    1359     1308     1312 1
    1360     1309     1310 1
    1361     1310     1311 1
    1362     1311     1317 1
    1363     1312     1313 1
    1364     1312     1316 1
    1365     1313     1314 1
    1366     1314     1315 1
    1367     1314     1318 1
    1368     1315     1316 1
    1369     1315     1321 1
    1370     1319     1320 1
    1371     1319     1327 1
    1372     1320     1321 1
    1373     1320     1328 1
    1374     1321     1322 1
    1375     1322     1323 1
    1376     1322     1326 1
    1377     1323     1324 1
    1378     1324     1325 1
    1379     1325     1326 1
    1380     1326     1327 1
    1381     1327     1455 1
    1382     1329     1330 1
    1383     1329     1349 1
    1384     1329     1350 1
    1385     1330     1331 1
    1386     1330     1341 1
    1387     1330     1351 1
    1388     1331     1332 1
    1389     1331     1352 1
    1390     1331     1353 1
    1391     1332     1333 1
    1392     1332     1354 1
    1393     1332     1355 1
    1394     1333     1334 1
    1395     1333     1356 1
    1396     1333     1357 1
    1397     1334     1335 1
    1398     1334     1358 1
    1399     1334     1359 1
    1400     1335     1336 1
    1401     1335     1360 1
    1402     1335     1361 1
    1403     1336     1337 1
    1404     1336     1362 1
    1405     1336     1363 1
    1406     1337     1338 1
    1407     1337     1364 1
    1408     1337     1365 1
    1409     1338     1339 1
    1410     1338     1366 1
    1411     1338     1367 1
    1412     1339     1340 1
    1413     1339     1368 1
    1414     1339     1369 1
    1415     1340     1370 1
    1416     1340     1371 1
    1417     1340     1372 1
    1418     1341     1342 1
    1419     1341     1373 1
    1420     1341     1374 1
    1421     1342     1343 1
    1422     1342     1375 1
    1423     1342     1376 1
    1424     1343     1344 1
    1425     1343     1377 1
    1426     1343     1378 1
    1427     1344     1345 1
    1428     1344     1379 1
    1429     1344     1380 1
    1430     1345     1346 1
    1431     1345     1381 1
    1432     1345     1382 1
    1433     1346     1347 1
    1434     1346     1383 1
    1435     1346     1384 1
    1436     1347     1348 1
    1437     1347     1385 1
    1438     1347     1386 1
    1439     1348     1387 1
    1440     1348     1388 1
    1441     1348     1389 1
    1442     1390     1391 1
    1443     1390     1410 1
    1444     1390     1411 1
    1445     1391     1392 1
    1446     1391     1402 1
    1447     1391     1412 1
    1448     1392     1393 1
    1449     1392     1413 1
    1450     1392     1414 1
    1451     1393     1394 1
    1452     1393     1415 1
    1453     1393     1416 1
    1454     1394     1395 1
    1455     1394     1417 1
    1456     1394     1418 1
    1457     1395     1396 1
    1458     1395     1419 1
    1459     1395     1420 1
    1460     1396     1397 1
    1461     1396     1421 1
    1462     1396     1422 1
    1463     1397     1398 1
    1464     1397     1423 1
    1465     1397     1424 1
    1466     1398     1399 1
    1467     1398     1425 1
    1468     1398     1426 1
    1469     1399     1400 1
    1470     1399     1427 1
    1471     1399     1428 1
    1472     1400     1401 1
    1473     1400     1429 1
    1474     1400     1430 1
    1475     1401     1431 1
    1476     1401     1432 1
    1477     1401     1433 1
    1478     1402     1403 1
    1479     1402     1434 1
    1480     1402     1435 1
    1481     1403     1404 1
    1482     1403     1436 1
    1483     1403     1437 1
    1484     1404     1405 1
    1485     1404     1438 1
    1486     1404     1439 1
    1487     1405     1406 1
    1488     1405     1440 1
    1489     1405     1441 1
    1490     1406     1407 1
    1491     1406     1442 1
    1492     1406     1443 1
    1493     1407     1408 1
    1494     1407     1444 1
    1495     1407     1445 1
    1496     1408     1409 1
    1497     1408     1446 1
    1498     1408     1447 1
    1499     1409     1448 1
    1500     1409     1449 1
    1501     1409     1450 1
    1502     1451     1452 1
    1503     1451     1458 1
    1504     1451     1474 1
    1505     1451     1535 1
    1506     1452     1453 1
    1507     1452     1456 1
    1508     1453     1454 1
    1509     1453     1457 1
    1510     1454     1455 1
    1511     1455     1456 1
    1512     1456     1462 1
    1513     1457     1458 1
    1514     1457     1461 1
    1515     1458     1459 1
    1516     1459     1460 1
    1517     1459     1463 1
    1518     1460     1461 1
    1519     1460     1466 1
    1520     1464     1465 1
    1521     1464     1472 1
    1522     1465     1466 1
    1523     1465     1473 1
    1524     1466     1467 1
    1525     1467     1468 1
    1526     1467     1471 1
    1527     1468     1469 1
    1528     1469     1470 1
    1529     1470     1471 1
    1530     1471     1472 1
    1531     1472     1600 1
    1532     1474     1475 1
    1533     1474     1494 1
    1534     1474     1495 1
    1535     1475     1476 1
    1536     1475     1486 1
    1537     1475     1496 1
    1538     1476     1477 1
    1539     1476     1497 1
    1540     1476     1498 1
    1541     1477     1478 1
    1542     1477     1499 1
    1543     1477     1500 1
    1544     1478     1479 1
    1545     1478     1501 1
    1546     1478     1502 1
    1547     1479     1480 1
    1548     1479     1503 1
    1549     1479     1504 1
    1550     1480     1481 1
    1551     1480     1505 1
    1552     1480     1506 1
    1553     1481     1482 1
    1554     1481     1507 1
    1555     1481     1508 1
    1556     1482     1483 1
    1557     1482     1509 1
    1558     1482     1510 1
    1559     1483     1484 1
    1560     1483     1511 1
    1561     1483     1512 1
    1562     1484     1485 1
    1563     1484     1513 1
    1564     1484     1514 1
    1565     1485     1515 1
    1566     1485     1516 1
    1567     1485     1517 1
    1568     1486     1487 1
    1569     1486     1518 1
    1570     1486     1519 1
    1571     1487     1488 1
    1572     1487     1520 1
    1573     1487     1521 1
    1574     1488     1489 1
    1575     1488     1522 1
    1576     1488     1523 1
    1577     1489     1490 1
    1578     1489     1524 1
    1579     1489     1525 1
    1580     1490     1491 1
    1581     1490     1526 1
    1582     1490     1527 1
    1583     1491     1492 1
    1584     1491     1528 1
    1585     1491     1529 1
    1586     1492     1493 1
    1587     1492     1530 1
    1588     1492     1531 1
    1589     1493     1532 1
    1590     1493     1533 1
    1591     1493     1534 1
    1592     1535     1536 1
    1593     1535     1555 1
    1594     1535     1556 1
    1595     1536     1537 1
    1596     1536     1547 1
    1597     1536     1557 1
    1598     1537     1538 1
    1599     1537     1558 1
    1600     1537     1559 1
    1601     1538     1539 1
    1602     1538     1560 1
    1603     1538     1561 1
    1604     1539     1540 1
    1605     1539     1562 1
    1606     1539     1563 1
    1607     1540     1541 1
    1608     1540     1564 1
    1609     1540     1565 1
    1610     1541     1542 1
    1611     1541     1566 1
    1612     1541     1567 1
    1613     1542     1543 1
    1614     1542     1568 1
    1615     1542     1569 1
    1616     1543     1544 1
    1617     1543     1570 1
    1618     1543     1571 1
    1619     1544     1545 1
    1620     1544     1572 1
    1621     1544     1573 1
    1622     1545     1546 1
    1623     1545     1574 1
    1624     1545     1575 1
    1625     1546     1576 1
    1626     1546     1577 1
    1627     1546     1578 1
    1628     1547     1548 1
    1629     1547     1579 1
    1630     1547     1580 1
    1631     1548     1549 1
    1632     1548     1581 1
    1633     1548     1582 1
    1634     1549     1550 1
    1635     1549     1583 1
    1636     1549     1584 1
    1637     1550     1551 1
    1638     1550     1585 1
    1639     1550     1586 1
    1640     1551     1552 1
    1641     1551     1587 1
    1642     1551     1588 1
    1643     1552     1553 1
    1644     1552     1589 1
    1645     1552     1590 1
    1646     1553     1554 1
    1647     1553     1591 1
    1648     1553     1592 1
    1649     1554     1593 1
    1650     1554     1594 1
    1651     1554     1595 1
    1652     1596     1597 1
    1653     1596     1603 1
    1654     1596     1619 1
    1655     1596     1680 1
    1656     1597     1598 1
    1657     1597     1601 1
    1658     1598     1599 1
    1659     1598     1602 1
    1660     1599     1600 1
    1661     1600     1601 1
    1662     1601     1607 1
    1663     1602     1603 1
    1664     1602     1606 1
    1665     1603     1604 1
    1666     1604     1605 1
    1667     1604     1608 1
    1668     1605     1606 1
    1669     1605     1611 1
    1670     1609     1610 1
    1671     1609     1617 1
    1672     1610     1611 1
    1673     1610     1618 1
    1674     1611     1612 1
    1675     1612     1613 1
    1676     1612     1616 1
    1677     1613     1614 1
    1678     1614     1615 1
    1679     1615     1616 1
    1680     1616     1617 1
    1681     1617     1745 1
    1682     1619     1620 1
    1683     1619     1639 1
    1684     1619     1640 1
    1685     1620     1621 1
    1686     1620     1631 1
    1687     1620     1641 1
    1688     1621     1622 1
    1689     1621     1642 1
    1690     1621     1643 1
    1691     1622     1623 1
    1692     1622     1644 1
    1693     1622     1645 1
    1694     1623     1624 1
    1695     1623     1646 1
    1696     1623     1647 1
    1697     1624     1625 1
    1698     1624     1648 1
    1699     1624     1649 1
    1700     1625     1626 1
    1701     1625     1650 1
    1702     1625     1651 1
    1703     1626     1627 1
    1704     1626     1652 1
    1705     1626     1653 1
    1706     1627     1628 1
    1707     1627     1654 1
    1708     1627     1655 1
    1709     1628     1629 1
    1710     1628     1656 1
    1711     1628     1657 1
    1712     1629     1630 1
    1713     1629     1658 1
    1714     1629     1659 1
    1715     1630     1660 1
    1716     1630     1661 1
    1717     1630     1662 1
    1718     1631     1632 1
    1719     1631     1663 1
    1720     1631     1664 1
    1721     1632     1633 1
    1722     1632     1665 1
    1723     1632     1666 1
    1724     1633     1634 1
    1725     1633     1667 1
    1726     1633     1668 1
    1727     1634     1635 1
    1728     1634     1669 1
    1729     1634     1670 1
    1730     1635     1636 1
    1731     1635     1671 1
    1732     1635     1672 1
    1733     1636     1637 1
    1734     1636     1673 1
    1735     1636     1674 1
    1736     1637     1638 1
    1737     1637     1675 1
    1738     1637     1676 1
    1739     1638     1677 1
    1740     1638     1678 1
    1741     1638     1679 1
    1742     1680     1681 1
    1743     1680     1700 1
    1744     1680     1701 1
    1745     1681     1682 1
    1746     1681     1692 1
    1747     1681     1702 1
    1748     1682     1683 1
    1749     1682     1703 1
    1750     1682     1704 1
    1751     1683     1684 1
    1752     1683     1705 1
    1753     1683     1706 1
    1754     1684     1685 1
    1755     1684     1707 1
    1756     1684     1708 1
    1757     1685     1686 1
    1758     1685     1709 1
    1759     1685     1710 1
    1760     1686     1687 1
    1761     1686     1711 1
    1762     1686     1712 1
    1763     1687     1688 1
    1764     1687     1713 1
    1765     1687     1714 1
    1766     1688     1689 1
    1767     1688     1715 1
    1768     1688     1716 1
    1769     1689     1690 1
    1770     1689     1717 1
    1771     1689     1718 1
    1772     1690     1691 1
    1773     1690     1719 1
    1774     1690     1720 1
    1775     1691     1721 1
    1776     1691     1722 1
    1777     1691     1723 1
    1778     1692     1693 1
    1779     1692     1724 1
    1780     1692     1725 1
    1781     1693     1694 1
    1782     1693     1726 1
    1783     1693     1727 1
    1784     1694     1695 1
    1785     1694     1728 1
    1786     1694     1729 1
    1787     1695     1696 1
    1788     1695     1730 1
    1789     1695     1731 1
    1790     1696     1697 1
    1791     1696     1732 1
    1792     1696     1733 1
    1793     1697     1698 1
    1794     1697     1734 1
    1795     1697     1735 1
    1796     1698     1699 1
    1797     1698     1736 1
    1798     1698     1737 1
    1799     1699     1738 1
    1800     1699     1739 1
    1801     1699     1740 1
    1802     1741     1742 1
    1803     1741     1748 1
    1804     1741     1764 1
    1805     1741     1825 1
    1806     1742     1743 1
    1807     1742     1746 1
    1808     1743     1744 1
    1809     1743     1747 1
    1810     1744     1745 1
    1811     1745     1746 1
    1812     1746     1752 1
    1813     1747     1748 1
    1814     1747     1751 1
    1815     1748     1749 1
    1816     1749     1750 1
    1817     1749     1753 1
    1818     1750     1751 1
    1819     1750     1756 1
    1820     1754     1755 1
    1821     1754     1762 1
    1822     1755     1756 1
    1823     1755     1763 1
    1824     1756     1757 1
    1825     1757     1758 1
    1826     1757     1761 1
    1827     1758     1759 1
    1828     1759     1760 1
    1829     1760     1761 1
    1830     1761     1762 1
    1831     1762     1890 1
    1832     1764     1765 1
    1833     1764     1784 1
    1834     1764     1785 1
    1835     1765     1766 1
    1836     1765     1776 1
    1837     1765     1786 1
    1838     1766     1767 1
    1839     1766     1787 1
    1840     1766     1788 1
    1841     1767     1768 1
    1842     1767     1789 1
    1843     1767     1790 1
    1844     1768     1769 1
    1845     1768     1791 1
    1846     1768     1792 1
    1847     1769     1770 1
    1848     1769     1793 1
    1849     1769     1794 1
    1850     1770     1771 1
    1851     1770     1795 1
    1852     1770     1796 1
    1853     1771     1772 1
    1854     1771     1797 1
    1855     1771     1798 1
    1856     1772     1773 1
    1857     1772     1799 1
    1858     1772     1800 1
    1859     1773     1774 1
    1860     1773     1801 1
    1861     1773     1802 1
    1862     1774     1775 1
    1863     1774     1803 1
    1864     1774     1804 1
    1865     1775     1805 1
    1866     1775     1806 1
    1867     1775     1807 1
    1868     1776     1777 1
    1869     1776     1808 1
    1870     1776     1809 1
    1871     1777     1778 1
    1872     1777     1810 1
    1873     1777     1811 1
    1874     1778     1779 1
    1875     1778     1812 1
    1876     1778     1813 1
    1877     1779     1780 1
    1878     1779     1814 1
    1879     1779     1815 1
    1880     1780     1781 1
    1881     1780     1816 1
    1882     1780     1817 1
    1883     1781     1782 1
    1884     1781     1818 1
    1885     1781     1819 1
    1886     1782     1783 1
    1887     1782     1820 1
    1888     1782     1821 1
    1889     1783     1822 1
    1890     1783     1823 1
    1891     1783     1824 1
    1892     1825     1826 1
    1893     1825     1845 1
    1894     1825     1846 1
    1895     1826     1827 1
    1896     1826     1837 1
    1897     1826     1847 1
    1898     1827     1828 1
    1899     1827     1848 1
    1900     1827     1849 1
    1901     1828     1829 1
    1902     1828     1850 1
    1903     1828     1851 1
    1904     1829     1830 1
    1905     1829     1852 1
    1906     1829     1853 1
    1907     1830     1831 1
    1908     1830     1854 1
    1909     1830     1855 1
    1910     1831     1832 1
    1911     1831     1856 1
    1912     1831     1857 1
    1913     1832     1833 1
    1914     1832     1858 1
    1915     1832     1859 1
    1916     1833     1834 1
    1917     1833     1860 1
    1918     1833     1861 1
    1919     1834     1835 1
    1920     1834     1862 1
    1921     1834     1863 1
    1922     1835     1836 1
    1923     1835     1864 1
    1924     1835     1865 1
    1925     1836     1866 1
    1926     1836     1867 1
    1927     1836     1868 1
    1928     1837     1838 1
    1929     1837     1869 1
    1930     1837     1870 1
    1931     1838     1839 1
    1932     1838     1871 1
    1933     1838     1872 1
    1934     1839     1840 1
    1935     1839     1873 1
    1936     1839     1874 1
    1937     1840     1841 1
    1938     1840     1875 1
    1939     1840     1876 1
    1940     1841     1842 1
    1941     1841     1877 1
    1942     1841     1878 1
    1943     1842     1843 1
    1944     1842     1879 1
    1945     1842     1880 1
    1946     1843     1844 1
    1947     1843     1881 1
    1948     1843     1882 1
    1949     1844     1883 1
    1950     1844     1884 1
    1951     1844     1885 1
    1952     1886     1887 1
    1953     1886     1893 1
    1954     1886     1909 1
    1955     1886     1970 1
    1956     1887     1888 1
    1957     1887     1891 1
    1958     1888     1889 1
    1959     1888     1892 1
    1960     1889     1890 1
    1961     1890     1891 1
    1962     1891     1897 1
    1963     1892     1893 1
    1964     1892     1896 1
    1965     1893     1894 1
    1966     1894     1895 1
    1967     1894     1898 1
    1968     1895     1896 1
    1969     1895     1901 1
    1970     1899     1900 1
    1971     1899     1907 1
    1972     1900     1901 1
    1973     1900     1908 1
    1974     1901     1902 1
    1975     1902     1903 1
    1976     1902     1906 1
    1977     1903     1904 1
    1978     1904     1905 1
    1979     1905     1906 1
    1980     1906     1907 1
    1981     1907     2035 1
    1982     1909     1910 1
    1983     1909     1929 1
    1984     1909     1930 1
    1985     1910     1911 1
    1986     1910     1921 1
    1987     1910     1931 1
    1988     1911     1912 1
    1989     1911     1932 1
    1990     1911     1933 1
    1991     1912     1913 1
    1992     1912     1934 1
    1993     1912     1935 1
    1994     1913     1914 1
    1995     1913     1936 1
    1996     1913     1937 1
    1997     1914     1915 1
    1998     1914     1938 1
    1999     1914     1939 1
    2000     1915     1916 1
    2001     1915     1940 1
    2002     1915     1941 1
    2003     1916     1917 1
    2004     1916     1942 1
    2005     1916     1943 1
    2006     1917     1918 1
    2007     1917     1944 1
    2008     1917     1945 1
    2009     1918     1919 1
    2010     1918     1946 1
    2011     1918     1947 1
    2012     1919     1920 1
    2013     1919     1948 1
    2014     1919     1949 1
    2015     1920     1950 1
    2016     1920     1951 1
    2017     1920     1952 1
    2018     1921     1922 1
    2019     1921     1953 1
    2020     1921     1954 1
    2021     1922     1923 1
    2022     1922     1955 1
    2023     1922     1956 1
    2024     1923     1924 1
    2025     1923     1957 1
    2026     1923     1958 1
    2027     1924     1925 1
    2028     1924     1959 1
    2029     1924     1960 1
    2030     1925     1926 1
    2031     1925     1961 1
    2032     1925     1962 1
    2033     1926     1927 1
    2034     1926     1963 1
    2035     1926     1964 1
    2036     1927     1928 1
    2037     1927     1965 1
    2038     1927     1966 1
    2039     1928     1967 1
    2040     1928     1968 1
    2041     1928     1969 1
    2042     1970     1971 1
    2043     1970     1990 1
    2044     1970     1991 1
    2045     1971     1972 1
    2046     1971     1982 1
    2047     1971     1992 1
    2048     1972     1973 1
    2049     1972     1993 1
    2050     1972     1994 1
    2051     1973     1974 1
    2052     1973     1995 1
    2053     1973     1996 1
    2054     1974     1975 1
    2055     1974     1997 1
    2056     1974     1998 1
    2057     1975     1976 1
    2058     1975     1999 1
    2059     1975     2000 1
    2060     1976     1977 1
    2061     1976     2001 1
    2062     1976     2002 1
    2063     1977     1978 1
    2064     1977     2003 1
    2065     1977     2004 1
    2066     1978     1979 1
    2067     1978     2005 1
    2068     1978     2006 1
    2069     1979     1980 1
    2070     1979     2007 1
    2071     1979     2008 1
    2072     1980     1981 1
    2073     1980     2009 1
    2074     1980     2010 1
    2075     1981     2011 1
    2076     1981     2012 1
    2077     1981     2013 1
    2078     1982     1983 1
    2079     1982     2014 1
    2080     1982     2015 1
    2081     1983     1984 1
    2082     1983     2016 1
    2083     1983     2017 1
    2084     1984     1985 1
    2085     1984     2018 1
    2086     1984     2019 1
    2087     1985     1986 1
    2088     1985     2020 1
    2089     1985     2021 1
    2090     1986     1987 1
    2091     1986     2022 1
    2092     1986     2023 1
    2093     1987     1988 1
    2094     1987     2024 1
    2095     1987     2025 1
    2096     1988     1989 1
    2097     1988     2026 1
    2098     1988     2027 1
    2099     1989     2028 1
    2100     1989     2029 1
    2101     1989     2030 1
    2102     2031     2032 1
    2103     2031     2038 1
    2104     2031     2054 1
    2105     2031     2115 1
    2106     2032     2033 1
    2107     2032     2036 1
    2108     2033     2034 1
    2109     2033     2037 1
    2110     2034     2035 1
    2111     2035     2036 1
    2112     2036     2042 1
    2113     2037     2038 1
    2114     2037     2041 1
    2115     2038     2039 1
    2116     2039     2040 1
    2117     2039     2043 1
    2118     2040     2041 1
    2119     2040     2046 1
    2120     2044     2045 1
    2121     2044     2052 1
    2122     2045     2046 1
    2123     2045     2053 1
    2124     2046     2047 1
    2125     2047     2048 1
    2126     2047     2051 1
    2127     2048     2049 1
    2128     2049     2050 1
    2129     2050     2051 1
    2130     2051     2052 1
    2131     2052     2180 1
    2132     2054     2055 1
    2133     2054     2074 1
    2134     2054     2075 1
    2135     2055     2056 1
    2136     2055     2066 1
    2137     2055     2076 1
    2138     2056     2057 1
    2139     2056     2077 1
    2140     2056     2078 1
    2141     2057     2058 1
    2142     2057     2079 1
    2143     2057     2080 1
    2144     2058     2059 1
    2145     2058     2081 1
    2146     2058     2082 1
    2147     2059     2060 1
    2148     2059     2083 1
    2149     2059     2084 1
    2150     2060     2061 1
    2151     2060     2085 1
    2152     2060     2086 1
    2153     2061     2062 1
    2154     2061     2087 1
    2155     2061     2088 1
    2156     2062     2063 1
    2157     2062     2089 1
    2158     2062     2090 1
    2159     2063     2064 1
    2160     2063     2091 1
    2161     2063     2092 1
    2162     2064     2065 1
    2163     2064     2093 1
    2164     2064     2094 1
    2165     2065     2095 1
    2166     2065     2096 1
    2167     2065     2097 1
    2168     2066     2067 1
    2169     2066     2098 1
    2170     2066     2099 1
    2171     2067     2068 1
    2172     2067     2100 1
    2173     2067     2101 1
    2174     2068     2069 1
    2175     2068     2102 1
    2176     2068     2103 1
    2177     2069     2070 1
    2178     2069     2104 1
    2179     2069     2105 1
    2180     2070     2071 1
    2181     2070     2106 1
    2182     2070     2107 1
    2183     2071     2072 1
    2184     2071     2108 1
    2185     2071     2109 1
    2186     2072     2073 1
    2187     2072     2110 1
    2188     2072     2111 1
    2189     2073     2112 1
    2190     2073     2113 1
    2191     2073     2114 1
    2192     2115     2116 1
    2193     2115     2135 1
    2194     2115     2136 1
    2195     2116     2117 1
    2196     2116     2127 1
    2197     2116     2137 1
    2198     2117     2118 1
    2199     2117     2138 1
    2200     2117     2139 1
    2201     2118     2119 1
    2202     2118     2140 1
    2203     2118     2141 1
    2204     2119     2120 1
    2205     2119     2142 1
    2206     2119     2143 1
    2207     2120     2121 1
    2208     2120     2144 1
    2209     2120     2145 1
    2210     2121     2122 1
    2211     2121     2146 1
    2212     2121     2147 1
    2213     2122     2123 1
    2214     2122     2148 1
    2215     2122     2149 1
    2216     2123     2124 1
    2217     2123     2150 1
    2218     2123     2151 1
    2219     2124     2125 1
    2220     2124     2152 1
    2221     2124     2153 1
    2222     2125     2126 1
    2223     2125     2154 1
    2224     2125     2155 1
    2225     2126     2156 1
    2226     2126     2157 1
    2227     2126     2158 1
    2228     2127     2128 1
    2229     2127     2159 1
    2230     2127     2160 1
    2231     2128     2129 1
    2232     2128     2161 1
    2233     2128     2162 1
    2234     2129     2130 1
    2235     2129     2163 1
    2236     2129     2164 1
    2237     2130     2131 1
    2238     2130     2165 1
    2239     2130     2166 1
    2240     2131     2132 1
    2241     2131     2167 1
    2242     2131     2168 1
    2243     2132     2133 1
    2244     2132     2169 1
    2245     2132     2170 1
    2246     2133     2134 1
    2247     2133     2171 1
    2248     2133     2172 1
    2249     2134     2173 1
    2250     2134     2174 1
    2251     2134     2175 1
    2252     2176     2177 1
    2253     2176     2183 1
    2254     2176     2199 1
    2255     2176     2260 1
    2256     2177     2178 1
    2257     2177     2181 1
    2258     2178     2179 1
    2259     2178     2182 1
    2260     2179     2180 1
    2261     2180     2181 1
    2262     2181     2187 1
    2263     2182     2183 1
    2264     2182     2186 1
    2265     2183     2184 1
    2266     2184     2185 1
    2267     2184     2188 1
    2268     2185     2186 1
    2269     2185     2191 1
    2270     2189     2190 1
    2271     2189     2197 1
    2272     2190     2191 1
    2273     2190     2198 1
    2274     2191     2192 1
    2275     2192     2193 1
    2276     2192     2196 1
    2277     2193     2194 1
    2278     2194     2195 1
    2279     2195     2196 1
    2280     2196     2197 1
    2281     2197     2325 1
    2282     2199     2200 1
    2283     2199     2219 1
    2284     2199     2220 1
    2285     2200     2201 1
    2286     2200     2211 1
    2287     2200     2221 1
    2288     2201     2202 1
    2289     2201     2222 1
    2290     2201     2223 1
    2291     2202     2203 1
    2292     2202     2224 1
    2293     2202     2225 1
    2294     2203     2204 1
    2295     2203     2226 1
    2296     2203     2227 1
    2297     2204     2205 1
    2298     2204     2228 1
    2299     2204     2229 1
    2300     2205     2206 1
    2301     2205     2230 1
    2302     2205     2231 1
    2303     2206     2207 1
    2304     2206     2232 1
    2305     2206     2233 1
    2306     2207     2208 1
    2307     2207     2234 1
    2308     2207     2235 1
    2309     2208     2209 1
    2310     2208     2236 1
    2311     2208     2237 1
    2312     2209     2210 1
    2313     2209     2238 1
    2314     2209     2239 1
    2315     2210     2240 1
    2316     2210     2241 1
    2317     2210     2242 1
    2318     2211     2212 1
    2319     2211     2243 1
    2320     2211     2244 1
    2321     2212     2213 1
    2322     2212     2245 1
    2323     2212     2246 1
    2324     2213     2214 1
    2325     2213     2247 1
    2326     2213     2248 1
    2327     2214     2215 1
    2328     2214     2249 1
    2329     2214     2250 1
    2330     2215     2216 1
    2331     2215     2251 1
    2332     2215     2252 1
    2333     2216     2217 1
    2334     2216     2253 1
    2335     2216     2254 1
    2336     2217     2218 1
    2337     2217     2255 1
    2338     2217     2256 1
    2339     2218     2257 1
    2340     2218     2258 1
    2341     2218     2259 1
    2342     2260     2261 1
    2343     2260     2280 1
    2344     2260     2281 1
    2345     2261     2262 1
    2346     2261     2272 1
    2347     2261     2282 1
    2348     2262     2263 1
    2349     2262     2283 1
    2350     2262     2284 1
    2351     2263     2264 1
    2352     2263     2285 1
    2353     2263     2286 1
    2354     2264     2265 1
    2355     2264     2287 1
    2356     2264     2288 1
    2357     2265     2266 1
    2358     2265     2289 1
    2359     2265     2290 1
    2360     2266     2267 1
    2361     2266     2291 1
    2362     2266     2292 1
    2363     2267     2268 1
    2364     2267     2293 1
    2365     2267     2294 1
    2366     2268     2269 1
    2367     2268     2295 1
    2368     2268     2296 1
    2369     2269     2270 1
    2370     2269     2297 1
    2371     2269     2298 1
    2372     2270     2271 1
    2373     2270     2299 1
    2374     2270     2300 1
    2375     2271     2301 1
    2376     2271     2302 1
    2377     2271     2303 1
    2378     2272     2273 1
    2379     2272     2304 1
    2380     2272     2305 1
    2381     2273     2274 1
    2382     2273     2306 1
    2383     2273     2307 1
    2384     2274     2275 1
    2385     2274     2308 1
    2386     2274     2309 1
    2387     2275     2276 1
    2388     2275     2310 1
    2389     2275     2311 1
    2390     2276     2277 1
    2391     2276     2312 1
    2392     2276     2313 1
    2393     2277     2278 1
    2394     2277     2314 1
    2395     2277     2315 1
    2396     2278     2279 1
    2397     2278     2316 1
    2398     2278     2317 1
    2399     2279     2318 1
    2400     2279     2319 1
    2401     2279     2320 1
    2402     2321     2322 1
    2403     2321     2328 1
    2404     2321     2344 1
    2405     2321     2405 1
    2406     2322     2323 1
    2407     2322     2326 1
    2408     2323     2324 1
    2409     2323     2327 1
    2410     2324     2325 1
    2411     2325     2326 1
    2412     2326     2332 1
    2413     2327     2328 1
    2414     2327     2331 1
    2415     2328     2329 1
    2416     2329     2330 1
    2417     2329     2333 1
    2418     2330     2331 1
    2419     2330     2336 1
    2420     2334     2335 1
    2421     2334     2342 1
    2422     2335     2336 1
    2423     2335     2343 1
    2424     2336     2337 1
    2425     2337     2338 1
    2426     2337     2341 1
    2427     2338     2339 1
    2428     2339     2340 1
    2429     2340     2341 1
    2430     2341     2342 1
    2431     2342     2470 1
    2432     2344     2345 1
    2433     2344     2364 1
    2434     2344     2365 1
    2435     2345     2346 1
    2436     2345     2356 1
    2437     2345     2366 1
    2438     2346     2347 1
    2439     2346     2367 1
    2440     2346     2368 1
    2441     2347     2348 1
    2442     2347     2369 1
    2443     2347     2370 1
    2444     2348     2349 1
    2445     2348     2371 1
    2446     2348     2372 1
    2447     2349     2350 1
    2448     2349     2373 1
    2449     2349     2374 1
    2450     2350     2351 1
    2451     2350     2375 1
    2452     2350     2376 1
    2453     2351     2352 1
    2454     2351     2377 1
    2455     2351     2378 1
    2456     2352     2353 1
    2457     2352     2379 1
    2458     2352     2380 1
    2459     2353     2354 1
    2460     2353     2381 1
    2461     2353     2382 1
    2462     2354     2355 1
    2463     2354     2383 1
    2464     2354     2384 1
    2465     2355     2385 1
    2466     2355     2386 1
    2467     2355     2387 1
    2468     2356     2357 1
    2469     2356     2388 1
    2470     2356     2389 1
    2471     2357     2358 1
    2472     2357     2390 1
    2473     2357     2391 1
    2474     2358     2359 1
    2475     2358     2392 1
    2476     2358     2393 1
    2477     2359     2360 1
    2478     2359     2394 1
    2479     2359     2395 1
    2480     2360     2361 1
    2481     2360     2396 1
    2482     2360     2397 1
    2483     2361     2362 1
    2484     2361     2398 1
    2485     2361     2399 1
    2486     2362     2363 1
    2487     2362     2400 1
    2488     2362     2401 1
    2489     2363     2402 1
    2490     2363     2403 1
    2491     2363     2404 1
    2492     2405     2406 1
    2493     2405     2425 1
    2494     2405     2426 1
    2495     2406     2407 1
    2496     2406     2417 1
    2497     2406     2427 1
    2498     2407     2408 1
    2499     2407     2428 1
    2500     2407     2429 1
    2501     2408     2409 1
    2502     2408     2430 1
    2503     2408     2431 1
    2504     2409     2410 1
    2505     2409     2432 1
    2506     2409     2433 1
    2507     2410     2411 1
    2508     2410     2434 1
    2509     2410     2435 1
    2510     2411     2412 1
    2511     2411     2436 1
    2512     2411     2437 1
    2513     2412     2413 1
    2514     2412     2438 1
    2515     2412     2439 1
    2516     2413     2414 1
    2517     2413     2440 1
    2518     2413     2441 1
    2519     2414     2415 1
    2520     2414     2442 1
    2521     2414     2443 1
    2522     2415     2416 1
    2523     2415     2444 1
    2524     2415     2445 1
    2525     2416     2446 1
    2526     2416     2447 1
    2527     2416     2448 1
    2528     2417     2418 1
    2529     2417     2449 1
    2530     2417     2450 1
    2531     2418     2419 1
    2532     2418     2451 1
    2533     2418     2452 1
    2534     2419     2420 1
    2535     2419     2453 1
    2536     2419     2454 1
    2537     2420     2421 1
    2538     2420     2455 1
    2539     2420     2456 1
    2540     2421     2422 1
    2541     2421     2457 1
    2542     2421     2458 1
    2543     2422     2423 1
    2544     2422     2459 1
    2545     2422     2460 1
    2546     2423     2424 1
    2547     2423     2461 1
    2548     2423     2462 1
    2549     2424     2463 1
    2550     2424     2464 1
    2551     2424     2465 1
    2552     2466     2467 1
    2553     2466     2473 1
    2554     2466     2489 1
    2555     2466     2550 1
    2556     2467     2468 1
    2557     2467     2471 1
    2558     2468     2469 1
    2559     2468     2472 1
    2560     2469     2470 1
    2561     2470     2471 1
    2562     2471     2477 1
    2563     2472     2473 1
    2564     2472     2476 1
    2565     2473     2474 1
    2566     2474     2475 1
    2567     2474     2478 1
    2568     2475     2476 1
    2569     2475     2481 1
    2570     2479     2480 1
    2571     2479     2487 1
    2572     2480     2481 1
    2573     2480     2488 1
    2574     2481     2482 1
    2575     2482     2483 1
    2576     2482     2486 1
    2577     2483     2484 1
    2578     2484     2485 1
    2579     2485     2486 1
    2580     2486     2487 1
    2581     2487     2615 1
    2582     2489     2490 1
    2583     2489     2509 1
    2584     2489     2510 1
    2585     2490     2491 1
    2586     2490     2501 1
    2587     2490     2511 1
    2588     2491     2492 1
    2589     2491     2512 1
    2590     2491     2513 1
    2591     2492     2493 1
    2592     2492     2514 1
    2593     2492     2515 1
    2594     2493     2494 1
    2595     2493     2516 1
    2596     2493     2517 1
    2597     2494     2495 1
    2598     2494     2518 1
    2599     2494     2519 1
    2600     2495     2496 1
    2601     2495     2520 1
    2602     2495     2521 1
    2603     2496     2497 1
    2604     2496     2522 1
    2605     2496     2523 1
    2606     2497     2498 1
    2607     2497     2524 1
    2608     2497     2525 1
    2609     2498     2499 1
    2610     2498     2526 1
    2611     2498     2527 1
    2612     2499     2500 1
    2613     2499     2528 1
    2614     2499     2529 1
    2615     2500     2530 1
    2616     2500     2531 1
    2617     2500     2532 1
    2618     2501     2502 1
    2619     2501     2533 1
    2620     2501     2534 1
    2621     2502     2503 1
    2622     2502     2535 1
    2623     2502     2536 1
    2624     2503     2504 1
    2625     2503     2537 1
    2626     2503     2538 1
    2627     2504     2505 1
    2628     2504     2539 1
    2629     2504     2540 1
    2630     2505     2506 1
    2631     2505     2541 1
    2632     2505     2542 1
    2633     2506     2507 1
    2634     2506     2543 1
    2635     2506     2544 1
    2636     2507     2508 1
    2637     2507     2545 1
    2638     2507     2546 1
    2639     2508     2547 1
    2640     2508     2548 1
    2641     2508     2549 1
    2642     2550     2551 1
    2643     2550     2570 1
    2644     2550     2571 1
    2645     2551     2552 1
    2646     2551     2562 1
    2647     2551     2572 1
    2648     2552     2553 1
    2649     2552     2573 1
    2650     2552     2574 1
    2651     2553     2554 1
    2652     2553     2575 1
    2653     2553     2576 1
    2654     2554     2555 1
    2655     2554     2577 1
    2656     2554     2578 1
    2657     2555     2556 1
    2658     2555     2579 1
    2659     2555     2580 1
    2660     2556     2557 1
    2661     2556     2581 1
    2662     2556     2582 1
    2663     2557     2558 1
    2664     2557     2583 1
    2665     2557     2584 1
    2666     2558     2559 1
    2667     2558     2585 1
    2668     2558     2586 1
    2669     2559     2560 1
    2670     2559     2587 1
    2671     2559     2588 1
    2672     2560     2561 1
    2673     2560     2589 1
    2674     2560     2590 1
    2675     2561     2591 1
    2676     2561     2592 1
    2677     2561     2593 1
    2678     2562     2563 1
    2679     2562     2594 1
    2680     2562     2595 1
    2681     2563     2564 1
    2682     2563     2596 1
    2683     2563     2597 1
    2684     2564     2565 1
    2685     2564     2598 1
    2686     2564     2599 1
    2687     2565     2566 1
    2688     2565     2600 1
    2689     2565     2601 1
    2690     2566     2567 1
    2691     2566     2602 1
    2692     2566     2603 1
    2693     2567     2568 1
    2694     2567     2604 1
    2695     2567     2605 1
    2696     2568     2569 1
    2697     2568     2606 1
    2698     2568     2607 1
    2699     2569     2608 1
    2700     2569     2609 1
    2701     2569     2610 1
    2702     2611     2612 1
    2703     2611     2618 1
    2704     2611     2634 1
    2705     2611     2695 1
    2706     2612     2613 1
    2707     2612     2616 1
    2708     2613     2614 1
    2709     2613     2617 1
    2710     2614     2615 1
    2711     2615     2616 1
    2712     2616     2622 1
    2713     2617     2618 1
    2714     2617     2621 1
    2715     2618     2619 1
    2716     2619     2620 1
    2717     2619     2623 1
    2718     2620     2621 1
    2719     2620     2626 1
    2720     2624     2625 1
    2721     2624     2632 1
    2722     2625     2626 1
    2723     2625     2633 1
    2724     2626     2627 1
    2725     2627     2628 1
    2726     2627     2631 1
    2727     2628     2629 1
    2728     2629     2630 1
    2729     2630     2631 1
    2730     2631     2632 1
    2731     2632     2760 1
    2732     2634     2635 1
    2733     2634     2654 1
    2734     2634     2655 1
    2735     2635     2636 1
    2736     2635     2646 1
    2737     2635     2656 1
    2738     2636     2637 1
    2739     2636     2657 1
    2740     2636     2658 1
    2741     2637     2638 1
    2742     2637     2659 1
    2743     2637     2660 1
    2744     2638     2639 1
    2745     2638     2661 1
    2746     2638     2662 1
    2747     2639     2640 1
    2748     2639     2663 1
    2749     2639     2664 1
    2750     2640     2641 1
    2751     2640     2665 1
    2752     2640     2666 1
    2753     2641     2642 1
    2754     2641     2667 1
    2755     2641     2668 1
    2756     2642     2643 1
    2757     2642     2669 1
    2758     2642     2670 1
    2759     2643     2644 1
    2760     2643     2671 1
    2761     2643     2672 1
    2762     2644     2645 1
    2763     2644     2673 1
    2764     2644     2674 1
    2765     2645     2675 1
    2766     2645     2676 1
    2767     2645     2677 1
    2768     2646     2647 1
    2769     2646     2678 1
    2770     2646     2679 1
    2771     2647     2648 1
    2772     2647     2680 1
    2773     2647     2681 1
    2774     2648     2649 1
    2775     2648     2682 1
    2776     2648     2683 1
    2777     2649     2650 1
    2778     2649     2684 1
    2779     2649     2685 1
    2780     2650     2651 1
    2781     2650     2686 1
    2782     2650     2687 1
    2783     2651     2652 1
    2784     2651     2688 1
    2785     2651     2689 1
    2786     2652     2653 1
    2787     2652     2690 1
    2788     2652     2691 1
    2789     2653     2692 1
    2790     2653     2693 1
    2791     2653     2694 1
    2792     2695     2696 1
    2793     2695     2715 1
    2794     2695     2716 1
    2795     2696     2697 1
    2796     2696     2707 1
    2797     2696     2717 1
    2798     2697     2698 1
    2799     2697     2718 1
    2800     2697     2719 1
    2801     2698     2699 1
    2802     2698     2720 1
    2803     2698     2721 1
    2804     2699     2700 1
    2805     2699     2722 1
    2806     2699     2723 1
    2807     2700     2701 1
    2808     2700     2724 1
    2809     2700     2725 1
    2810     2701     2702 1
    2811     2701     2726 1
    2812     2701     2727 1
    2813     2702     2703 1
    2814     2702     2728 1
    2815     2702     2729 1
    2816     2703     2704 1
    2817     2703     2730 1
    2818     2703     2731 1
    2819     2704     2705 1
    2820     2704     2732 1
    2821     2704     2733 1
    2822     2705     2706 1
    2823     2705     2734 1
    2824     2705     2735 1
    2825     2706     2736 1
    2826     2706     2737 1
    2827     2706     2738 1
    2828     2707     2708 1
    2829     2707     2739 1
    2830     2707     2740 1
    2831     2708     2709 1
    2832     2708     2741 1
    2833     2708     2742 1
    2834     2709     2710 1
    2835     2709     2743 1
    2836     2709     2744 1
    2837     2710     2711 1
    2838     2710     2745 1
    2839     2710     2746 1
    2840     2711     2712 1
    2841     2711     2747 1
    2842     2711     2748 1
    2843     2712     2713 1
    2844     2712     2749 1
    2845     2712     2750 1
    2846     2713     2714 1
    2847     2713     2751 1
    2848     2713     2752 1
    2849     2714     2753 1
    2850     2714     2754 1
    2851     2714     2755 1
    2852     2756     2757 1
    2853     2756     2763 1
    2854     2756     2779 1
    2855     2756     2840 1
    2856     2757     2758 1
    2857     2757     2761 1
    2858     2758     2759 1
    2859     2758     2762 1
    2860     2759     2760 1
    2861     2760     2761 1
    2862     2761     2767 1
    2863     2762     2763 1
    2864     2762     2766 1
    2865     2763     2764 1
    2866     2764     2765 1
    2867     2764     2768 1
    2868     2765     2766 1
    2869     2765     2771 1
    2870     2769     2770 1
    2871     2769     2777 1
    2872     2770     2771 1
    2873     2770     2778 1
    2874     2771     2772 1
    2875     2772     2773 1
    2876     2772     2776 1
    2877     2773     2774 1
    2878     2774     2775 1
    2879     2775     2776 1
    2880     2776     2777 1
    2881     2777     2905 1
    2882     2779     2780 1
    2883     2779     2799 1
    2884     2779     2800 1
    2885     2780     2781 1
    2886     2780     2791 1
    2887     2780     2801 1
    2888     2781     2782 1
    2889     2781     2802 1
    2890     2781     2803 1
    2891     2782     2783 1
    2892     2782     2804 1
    2893     2782     2805 1
    2894     2783     2784 1
    2895     2783     2806 1
    2896     2783     2807 1
    2897     2784     2785 1
    2898     2784     2808 1
    2899     2784     2809 1
    2900     2785     2786 1
    2901     2785     2810 1
    2902     2785     2811 1
    2903     2786     2787 1
    2904     2786     2812 1
    2905     2786     2813 1
    2906     2787     2788 1
    2907     2787     2814 1
    2908     2787     2815 1
    2909     2788     2789 1
    2910     2788     2816 1
    2911     2788     2817 1
    2912     2789     2790 1
    2913     2789     2818 1
    2914     2789     2819 1
    2915     2790     2820 1
    2916     2790     2821 1
    2917     2790     2822 1
    2918     2791     2792 1
    2919     2791     2823 1
    2920     2791     2824 1
    2921     2792     2793 1
    2922     2792     2825 1
    2923     2792     2826 1
    2924     2793     2794 1
    2925     2793     2827 1
    2926     2793     2828 1
    2927     2794     2795 1
    2928     2794     2829 1
    2929     2794     2830 1
    2930     2795     2796 1
    2931     2795     2831 1
    2932     2795     2832 1
    2933     2796     2797 1
    2934     2796     2833 1
    2935     2796     2834 1
    2936     2797     2798 1
    2937     2797     2835 1
    2938     2797     2836 1
    2939     2798     2837 1
    2940     2798     2838 1
    2941     2798     2839 1
    2942     2840     2841 1
    2943     2840     2860 1
    2944     2840     2861 1
    2945     2841     2842 1
    2946     2841     2852 1
    2947     2841     2862 1
    2948     2842     2843 1
    2949     2842     2863 1
    2950     2842     2864 1
    2951     2843     2844 1
    2952     2843     2865 1
    2953     2843     2866 1
    2954     2844     2845 1
    2955     2844     2867 1
    2956     2844     2868 1
    2957     2845     2846 1
    2958     2845     2869 1
    2959     2845     2870 1
    2960     2846     2847 1
    2961     2846     2871 1
    2962     2846     2872 1
    2963     2847     2848 1
    2964     2847     2873 1
    2965     2847     2874 1
    2966     2848     2849 1
    2967     2848     2875 1
    2968     2848     2876 1
    2969     2849     2850 1
    2970     2849     2877 1
    2971     2849     2878 1
    2972     2850     2851 1
    2973     2850     2879 1
    2974     2850     2880 1
    2975     2851     2881 1
    2976     2851     2882 1
    2977     2851     2883 1
    2978     2852     2853 1
    2979     2852     2884 1
    2980     2852     2885 1
    2981     2853     2854 1
    2982     2853     2886 1
    2983     2853     2887 1
    2984     2854     2855 1
    2985     2854     2888 1
    2986     2854     2889 1
    2987     2855     2856 1
    2988     2855     2890 1
    2989     2855     2891 1
    2990     2856     2857 1
    2991     2856     2892 1
    2992     2856     2893 1
    2993     2857     2858 1
    2994     2857     2894 1
    2995     2857     2895 1
    2996     2858     2859 1
    2997     2858     2896 1
    2998     2858     2897 1
    2999     2859     2898 1
    3000     2859     2899 1
    3001     2859     2900 1
    3002     2901     2902 1
    3003     2901     2908 1
    3004     2901     2924 1
    3005     2901     2985 1
    3006     2902     2903 1
    3007     2902     2906 1
    3008     2903     2904 1
    3009     2903     2907 1
    3010     2904     2905 1
    3011     2905     2906 1
    3012     2906     2912 1
    3013     2907     2908 1
    3014     2907     2911 1
    3015     2908     2909 1
    3016     2909     2910 1
    3017     2909     2913 1
    3018     2910     2911 1
    3019     2910     2916 1
    3020     2914     2915 1
    3021     2914     2922 1
    3022     2915     2916 1
    3023     2915     2923 1
    3024     2916     2917 1
    3025     2917     2918 1
    3026     2917     2921 1
    3027     2918     2919 1
    3028     2919     2920 1
    3029     2920     2921 1
    3030     2921     2922 1
    3031     2922     3050 1
    3032     2924     2925 1
    3033     2924     2944 1
    3034     2924     2945 1
    3035     2925     2926 1
    3036     2925     2936 1
    3037     2925     2946 1
    3038     2926     2927 1
    3039     2926     2947 1
    3040     2926     2948 1
    3041     2927     2928 1
    3042     2927     2949 1
    3043     2927     2950 1
    3044     2928     2929 1
    3045     2928     2951 1
    3046     2928     2952 1
    3047     2929     2930 1
    3048     2929     2953 1
    3049     2929     2954 1
    3050     2930     2931 1
    3051     2930     2955 1
    3052     2930     2956 1
    3053     2931     2932 1
    3054     2931     2957 1
    3055     2931     2958 1
    3056     2932     2933 1
    3057     2932     2959 1
    3058     2932     2960 1
    3059     2933     2934 1
    3060     2933     2961 1
    3061     2933     2962 1
    3062     2934     2935 1
    3063     2934     2963 1
    3064     2934     2964 1
    3065     2935     2965 1
    3066     2935     2966 1
    3067     2935     2967 1
    3068     2936     2937 1
    3069     2936     2968 1
    3070     2936     2969 1
    3071     2937     2938 1
    3072     2937     2970 1
    3073     2937     2971 1
    3074     2938     2939 1
    3075     2938     2972 1
    3076     2938     2973 1
    3077     2939     2940 1
    3078     2939     2974 1
    3079     2939     2975 1
    3080     2940     2941 1
    3081     2940     2976 1
    3082     2940     2977 1
    3083     2941     2942 1
    3084     2941     2978 1
    3085     2941     2979 1
    3086     2942     2943 1
    3087     2942     2980 1
    3088     2942     2981 1
    3089     2943     2982 1
    3090     2943     2983 1
    3091     2943     2984 1
    3092     2985     2986 1
    3093     2985     3005 1
    3094     2985     3006 1
    3095     2986     2987 1
    3096     2986     2997 1
    3097     2986     3007 1
    3098     2987     2988 1
    3099     2987     3008 1
    3100     2987     3009 1
    3101     2988     2989 1
    3102     2988     3010 1
    3103     2988     3011 1
    3104     2989     2990 1
    3105     2989     3012 1
    3106     2989     3013 1
    3107     2990     2991 1
    3108     2990     3014 1
    3109     2990     3015 1
    3110     2991     2992 1
    3111     2991     3016 1
    3112     2991     3017 1
    3113     2992     2993 1
    3114     2992     3018 1
    3115     2992     3019 1
    3116     2993     2994 1
    3117     2993     3020 1
    3118     2993     3021 1
    3119     2994     2995 1
    3120     2994     3022 1
    3121     2994     3023 1
    3122     2995     2996 1
    3123     2995     3024 1
    3124     2995     3025 1
    3125     2996     3026 1
    3126     2996     3027 1
    3127     2996     3028 1
    3128     2997     2998 1
    3129     2997     3029 1
    3130     2997     3030 1
    3131     2998     2999 1
    3132     2998     3031 1
    3133     2998     3032 1
    3134     2999     3000 1
    3135     2999     3033 1
    3136     2999     3034 1
    3137     3000     3001 1
    3138     3000     3035 1
    3139     3000     3036 1
    3140     3001     3002 1
    3141     3001     3037 1
    3142     3001     3038 1
    3143     3002     3003 1
    3144     3002     3039 1
    3145     3002     3040 1
    3146     3003     3004 1
    3147     3003     3041 1
    3148     3003     3042 1
    3149     3004     3043 1
    3150     3004     3044 1
    3151     3004     3045 1
    3152     3046     3047 1
    3153     3046     3053 1
    3154     3046     3069 1
    3155     3046     3130 1
    3156     3047     3048 1
    3157     3047     3051 1
    3158     3048     3049 1
    3159     3048     3052 1
    3160     3049     3050 1
    3161     3050     3051 1
    3162     3051     3057 1
    3163     3052     3053 1
    3164     3052     3056 1
    3165     3053     3054 1
    3166     3054     3055 1
    3167     3054     3058 1
    3168     3055     3056 1
    3169     3055     3061 1
    3170     3059     3060 1
    3171     3059     3067 1
    3172     3060     3061 1
    3173     3060     3068 1
    3174     3061     3062 1
    3175     3062     3063 1
    3176     3062     3066 1
    3177     3063     3064 1
    3178     3064     3065 1
    3179     3065     3066 1
    3180     3066     3067 1
    3181     3067     3195 1
    3182     3069     3070 1
    3183     3069     3089 1
    3184     3069     3090 1
    3185     3070     3071 1
    3186     3070     3081 1
    3187     3070     3091 1
    3188     3071     3072 1
    3189     3071     3092 1
    3190     3071     3093 1
    3191     3072     3073 1
    3192     3072     3094 1
    3193     3072     3095 1
    3194     3073     3074 1
    3195     3073     3096 1
    3196     3073     3097 1
    3197     3074     3075 1
    3198     3074     3098 1
    3199     3074     3099 1
    3200     3075     3076 1
    3201     3075     3100 1
    3202     3075     3101 1
    3203     3076     3077 1
    3204     3076     3102 1
    3205     3076     3103 1
    3206     3077     3078 1
    3207     3077     3104 1
    3208     3077     3105 1
    3209     3078     3079 1
    3210     3078     3106 1
    3211     3078     3107 1
    3212     3079     3080 1
    3213     3079     3108 1
    3214     3079     3109 1
    3215     3080     3110 1
    3216     3080     3111 1
    3217     3080     3112 1
    3218     3081     3082 1
    3219     3081     3113 1
    3220     3081     3114 1
    3221     3082     3083 1
    3222     3082     3115 1
    3223     3082     3116 1
    3224     3083     3084 1
    3225     3083     3117 1
    3226     3083     3118 1
    3227     3084     3085 1
    3228     3084     3119 1
    3229     3084     3120 1
    3230     3085     3086 1
    3231     3085     3121 1
    3232     3085     3122 1
    3233     3086     3087 1
    3234     3086     3123 1
    3235     3086     3124 1
    3236     3087     3088 1
    3237     3087     3125 1
    3238     3087     3126 1
    3239     3088     3127 1
    3240     3088     3128 1
    3241     3088     3129 1
    3242     3130     3131 1
    3243     3130     3150 1
    3244     3130     3151 1
    3245     3131     3132 1
    3246     3131     3142 1
    3247     3131     3152 1
    3248     3132     3133 1
    3249     3132     3153 1
    3250     3132     3154 1
    3251     3133     3134 1
    3252     3133     3155 1
    3253     3133     3156 1
    3254     3134     3135 1
    3255     3134     3157 1
    3256     3134     3158 1
    3257     3135     3136 1
    3258     3135     3159 1
    3259     3135     3160 1
    3260     3136     3137 1
    3261     3136     3161 1
    3262     3136     3162 1
    3263     3137     3138 1
    3264     3137     3163 1
    3265     3137     3164 1
    3266     3138     3139 1
    3267     3138     3165 1
    3268     3138     3166 1
    3269     3139     3140 1
    3270     3139     3167 1
    3271     3139     3168 1
    3272     3140     3141 1
    3273     3140     3169 1
    3274     3140     3170 1
    3275     3141     3171 1
    3276     3141     3172 1
    3277     3141     3173 1
    3278     3142     3143 1
    3279     3142     3174 1
    3280     3142     3175 1
    3281     3143     3144 1
    3282     3143     3176 1
    3283     3143     3177 1
    3284     3144     3145 1
    3285     3144     3178 1
    3286     3144     3179 1
    3287     3145     3146 1
    3288     3145     3180 1
    3289     3145     3181 1
    3290     3146     3147 1
    3291     3146     3182 1
    3292     3146     3183 1
    3293     3147     3148 1
    3294     3147     3184 1
    3295     3147     3185 1
    3296     3148     3149 1
    3297     3148     3186 1
    3298     3148     3187 1
    3299     3149     3188 1
    3300     3149     3189 1
    3301     3149     3190 1
    3302     3191     3192 1
    3303     3191     3198 1
    3304     3191     3214 1
    3305     3191     3275 1
    3306     3192     3193 1
    3307     3192     3196 1
    3308     3193     3194 1
    3309     3193     3197 1
    3310     3194     3195 1
    3311     3195     3196 1
    3312     3196     3202 1
    3313     3197     3198 1
    3314     3197     3201 1
    3315     3198     3199 1
    3316     3199     3200 1
    3317     3199     3203 1
    3318     3200     3201 1
    3319     3200     3206 1
    3320     3204     3205 1
    3321     3204     3212 1
    3322     3205     3206 1
    3323     3205     3213 1
    3324     3206     3207 1
    3325     3207     3208 1
    3326     3207     3211 1
    3327     3208     3209 1
    3328     3209     3210 1
    3329     3210     3211 1
    3330     3211     3212 1
    3331     3212     3340 1
    3332     3214     3215 1
    3333     3214     3234 1
    3334     3214     3235 1
    3335     3215     3216 1
    3336     3215     3226 1
    3337     3215     3236 1
    3338     3216     3217 1
    3339     3216     3237 1
    3340     3216     3238 1
    3341     3217     3218 1
    3342     3217     3239 1
    3343     3217     3240 1
    3344     3218     3219 1
    3345     3218     3241 1
    3346     3218     3242 1
    3347     3219     3220 1
    3348     3219     3243 1
    3349     3219     3244 1
    3350     3220     3221 1
    3351     3220     3245 1
    3352     3220     3246 1
    3353     3221     3222 1
    3354     3221     3247 1
    3355     3221     3248 1
    3356     3222     3223 1
    3357     3222     3249 1
    3358     3222     3250 1
    3359     3223     3224 1
    3360     3223     3251 1
    3361     3223     3252 1
    3362     3224     3225 1
    3363     3224     3253 1
    3364     3224     3254 1
    3365     3225     3255 1
    3366     3225     3256 1
    3367     3225     3257 1
    3368     3226     3227 1
    3369     3226     3258 1
    3370     3226     3259 1
    3371     3227     3228 1
    3372     3227     3260 1
    3373     3227     3261 1
    3374     3228     3229 1
    3375     3228     3262 1
    3376     3228     3263 1
    3377     3229     3230 1
    3378     3229     3264 1
    3379     3229     3265 1
    3380     3230     3231 1
    3381     3230     3266 1
    3382     3230     3267 1
    3383     3231     3232 1
    3384     3231     3268 1
    3385     3231     3269 1
    3386     3232     3233 1
    3387     3232     3270 1
    3388     3232     3271 1
    3389     3233     3272 1
    3390     3233     3273 1
    3391     3233     3274 1
    3392     3275     3276 1
    3393     3275     3295 1
    3394     3275     3296 1
    3395     3276     3277 1
    3396     3276     3287 1
    3397     3276     3297 1
    3398     3277     3278 1
    3399     3277     3298 1
    3400     3277     3299 1
    3401     3278     3279 1
    3402     3278     3300 1
    3403     3278     3301 1
    3404     3279     3280 1
    3405     3279     3302 1
    3406     3279     3303 1
    3407     3280     3281 1
    3408     3280     3304 1
    3409     3280     3305 1
    3410     3281     3282 1
    3411     3281     3306 1
    3412     3281     3307 1
    3413     3282     3283 1
    3414     3282     3308 1
    3415     3282     3309 1
    3416     3283     3284 1
    3417     3283     3310 1
    3418     3283     3311 1
    3419     3284     3285 1
    3420     3284     3312 1
    3421     3284     3313 1
    3422     3285     3286 1
    3423     3285     3314 1
    3424     3285     3315 1
    3425     3286     3316 1
    3426     3286     3317 1
    3427     3286     3318 1
    3428     3287     3288 1
    3429     3287     3319 1
    3430     3287     3320 1
    3431     3288     3289 1
    3432     3288     3321 1
    3433     3288     3322 1
    3434     3289     3290 1
    3435     3289     3323 1
    3436     3289     3324 1
    3437     3290     3291 1
    3438     3290     3325 1
    3439     3290     3326 1
    3440     3291     3292 1
    3441     3291     3327 1
    3442     3291     3328 1
    3443     3292     3293 1
    3444     3292     3329 1
    3445     3292     3330 1
    3446     3293     3294 1
    3447     3293     3331 1
    3448     3293     3332 1
    3449     3294     3333 1
    3450     3294     3334 1
    3451     3294     3335 1
    3452     3336     3337 1
    3453     3336     3343 1
    3454     3336     3359 1
    3455     3336     3420 1
    3456     3337     3338 1
    3457     3337     3341 1
    3458     3338     3339 1
    3459     3338     3342 1
    3460     3339     3340 1
    3461     3340     3341 1
    3462     3341     3347 1
    3463     3342     3343 1
    3464     3342     3346 1
    3465     3343     3344 1
    3466     3344     3345 1
    3467     3344     3348 1
    3468     3345     3346 1
    3469     3345     3351 1
    3470     3349     3350 1
    3471     3349     3357 1
    3472     3350     3351 1
    3473     3350     3358 1
    3474     3351     3352 1
    3475     3352     3353 1
    3476     3352     3356 1
    3477     3353     3354 1
    3478     3354     3355 1
    3479     3355     3356 1
    3480     3356     3357 1
    3481     3357     3485 1
    3482     3359     3360 1
    3483     3359     3379 1
    3484     3359     3380 1
    3485     3360     3361 1
    3486     3360     3371 1
    3487     3360     3381 1
    3488     3361     3362 1
    3489     3361     3382 1
    3490     3361     3383 1
    3491     3362     3363 1
    3492     3362     3384 1
    3493     3362     3385 1
    3494     3363     3364 1
    3495     3363     3386 1
    3496     3363     3387 1
    3497     3364     3365 1
    3498     3364     3388 1
    3499     3364     3389 1
    3500     3365     3366 1
    3501     3365     3390 1
    3502     3365     3391 1
    3503     3366     3367 1
    3504     3366     3392 1
    3505     3366     3393 1
    3506     3367     3368 1
    3507     3367     3394 1
    3508     3367     3395 1
    3509     3368     3369 1
    3510     3368     3396 1
    3511     3368     3397 1
    3512     3369     3370 1
    3513     3369     3398 1
    3514     3369     3399 1
    3515     3370     3400 1
    3516     3370     3401 1
    3517     3370     3402 1
    3518     3371     3372 1
    3519     3371     3403 1
    3520     3371     3404 1
    3521     3372     3373 1
    3522     3372     3405 1
    3523     3372     3406 1
    3524     3373     3374 1
    3525     3373     3407 1
    3526     3373     3408 1
    3527     3374     3375 1
    3528     3374     3409 1
    3529     3374     3410 1
    3530     3375     3376 1
    3531     3375     3411 1
    3532     3375     3412 1
    3533     3376     3377 1
    3534     3376     3413 1
    3535     3376     3414 1
    3536     3377     3378 1
    3537     3377     3415 1
    3538     3377     3416 1
    3539     3378     3417 1
    3540     3378     3418 1
    3541     3378     3419 1
    3542     3420     3421 1
    3543     3420     3440 1
    3544     3420     3441 1
    3545     3421     3422 1
    3546     3421     3432 1
    3547     3421     3442 1
    3548     3422     3423 1
    3549     3422     3443 1
    3550     3422     3444 1
    3551     3423     3424 1
    3552     3423     3445 1
    3553     3423     3446 1
    3554     3424     3425 1
    3555     3424     3447 1
    3556     3424     3448 1
    3557     3425     3426 1
    3558     3425     3449 1
    3559     3425     3450 1
    3560     3426     3427 1
    3561     3426     3451 1
    3562     3426     3452 1
    3563     3427     3428 1
    3564     3427     3453 1
    3565     3427     3454 1
    3566     3428     3429 1
    3567     3428     3455 1
    3568     3428     3456 1
    3569     3429     3430 1
    3570     3429     3457 1
    3571     3429     3458 1
    3572     3430     3431 1
    3573     3430     3459 1
    3574     3430     3460 1
    3575     3431     3461 1
    3576     3431     3462 1
    3577     3431     3463 1
    3578     3432     3433 1
    3579     3432     3464 1
    3580     3432     3465 1
    3581     3433     3434 1
    3582     3433     3466 1
    3583     3433     3467 1
    3584     3434     3435 1
    3585     3434     3468 1
    3586     3434     3469 1
    3587     3435     3436 1
    3588     3435     3470 1
    3589     3435     3471 1
    3590     3436     3437 1
    3591     3436     3472 1
    3592     3436     3473 1
    3593     3437     3438 1
    3594     3437     3474 1
    3595     3437     3475 1
    3596     3438     3439 1
    3597     3438     3476 1
    3598     3438     3477 1
    3599     3439     3478 1
    3600     3439     3479 1
    3601     3439     3480 1
    3602     3481     3482 1
    3603     3481     3488 1
    3604     3481     3504 1
    3605     3481     3565 1
    3606     3482     3483 1
    3607     3482     3486 1
    3608     3483     3484 1
    3609     3483     3487 1
    3610     3484     3485 1
    3611     3485     3486 1
    3612     3486     3492 1
    3613     3487     3488 1
    3614     3487     3491 1
    3615     3488     3489 1
    3616     3489     3490 1
    3617     3489     3493 1
    3618     3490     3491 1
    3619     3490     3496 1
    3620     3494     3495 1
    3621     3494     3502 1
    3622     3495     3496 1
    3623     3495     3503 1
    3624     3496     3497 1
    3625     3497     3498 1
    3626     3497     3501 1
    3627     3498     3499 1
    3628     3499     3500 1
    3629     3500     3501 1
    3630     3501     3502 1
    3631     3502     3630 1
    3632     3504     3505 1
    3633     3504     3524 1
    3634     3504     3525 1
    3635     3505     3506 1
    3636     3505     3516 1
    3637     3505     3526 1
    3638     3506     3507 1
    3639     3506     3527 1
    3640     3506     3528 1
    3641     3507     3508 1
    3642     3507     3529 1
    3643     3507     3530 1
    3644     3508     3509 1
    3645     3508     3531 1
    3646     3508     3532 1
    3647     3509     3510 1
    3648     3509     3533 1
    3649     3509     3534 1
    3650     3510     3511 1
    3651     3510     3535 1
    3652     3510     3536 1
    3653     3511     3512 1
    3654     3511     3537 1
    3655     3511     3538 1
    3656     3512     3513 1
    3657     3512     3539 1
    3658     3512     3540 1
    3659     3513     3514 1
    3660     3513     3541 1
    3661     3513     3542 1
    3662     3514     3515 1
    3663     3514     3543 1
    3664     3514     3544 1
    3665     3515     3545 1
    3666     3515     3546 1
    3667     3515     3547 1
    3668     3516     3517 1
    3669     3516     3548 1
    3670     3516     3549 1
    3671     3517     3518 1
    3672     3517     3550 1
    3673     3517     3551 1
    3674     3518     3519 1
    3675     3518     3552 1
    3676     3518     3553 1
    3677     3519     3520 1
    3678     3519     3554 1
    3679     3519     3555 1
    3680     3520     3521 1
    3681     3520     3556 1
    3682     3520     3557 1
    3683     3521     3522 1
    3684     3521     3558 1
    3685     3521     3559 1
    3686     3522     3523 1
    3687     3522     3560 1
    3688     3522     3561 1
    3689     3523     3562 1
    3690     3523     3563 1
    3691     3523     3564 1
    3692     3565     3566 1
    3693     3565     3585 1
    3694     3565     3586 1
    3695     3566     3567 1
    3696     3566     3577 1
    3697     3566     3587 1
    3698     3567     3568 1
    3699     3567     3588 1
    3700     3567     3589 1
    3701     3568     3569 1
    3702     3568     3590 1
    3703     3568     3591 1
    3704     3569     3570 1
    3705     3569     3592 1
    3706     3569     3593 1
    3707     3570     3571 1
    3708     3570     3594 1
    3709     3570     3595 1
    3710     3571     3572 1
    3711     3571     3596 1
    3712     3571     3597 1
    3713     3572     3573 1
    3714     3572     3598 1
    3715     3572     3599 1
    3716     3573     3574 1
    3717     3573     3600 1
    3718     3573     3601 1
    3719     3574     3575 1
    3720     3574     3602 1
    3721     3574     3603 1
    3722     3575     3576 1
    3723     3575     3604 1
    3724     3575     3605 1
    3725     3576     3606 1
    3726     3576     3607 1
    3727     3576     3608 1
    3728     3577     3578 1
    3729     3577     3609 1
    3730     3577     3610 1
    3731     3578     3579 1
    3732     3578     3611 1
    3733     3578     3612 1
    3734     3579     3580 1
    3735     3579     3613 1
    3736     3579     3614 1
    3737     3580     3581 1
    3738     3580     3615 1
    3739     3580     3616 1
    3740     3581     3582 1
    3741     3581     3617 1
    3742     3581     3618 1
    3743     3582     3583 1
    3744     3582     3619 1
    3745     3582     3620 1
    3746     3583     3584 1
    3747     3583     3621 1
    3748     3583     3622 1
    3749     3584     3623 1
    3750     3584     3624 1
    3751     3584     3625 1
    3752     3626     3627 1
    3753     3626     3633 1
    3754     3626     3649 1
    3755     3626     3710 1
    3756     3627     3628 1
    3757     3627     3631 1
    3758     3628     3629 1
    3759     3628     3632 1
    3760     3629     3630 1
    3761     3630     3631 1
    3762     3631     3637 1
    3763     3632     3633 1
    3764     3632     3636 1
    3765     3633     3634 1
    3766     3634     3635 1
    3767     3634     3638 1
    3768     3635     3636 1
    3769     3635     3641 1
    3770     3639     3640 1
    3771     3639     3647 1
    3772     3640     3641 1
    3773     3640     3648 1
    3774     3641     3642 1
    3775     3642     3643 1
    3776     3642     3646 1
    3777     3643     3644 1
    3778     3644     3645 1
    3779     3645     3646 1
    3780     3646     3647 1
    3781     3647     3775 1
    3782     3649     3650 1
    3783     3649     3669 1
    3784     3649     3670 1
    3785     3650     3651 1
    3786     3650     3661 1
    3787     3650     3671 1
    3788     3651     3652 1
    3789     3651     3672 1
    3790     3651     3673 1
    3791     3652     3653 1
    3792     3652     3674 1
    3793     3652     3675 1
    3794     3653     3654 1
    3795     3653     3676 1
    3796     3653     3677 1
    3797     3654     3655 1
    3798     3654     3678 1
    3799     3654     3679 1
    3800     3655     3656 1
    3801     3655     3680 1
    3802     3655     3681 1
    3803     3656     3657 1
    3804     3656     3682 1
    3805     3656     3683 1
    3806     3657     3658 1
    3807     3657     3684 1
    3808     3657     3685 1
    3809     3658     3659 1
    3810     3658     3686 1
    3811     3658     3687 1
    3812     3659     3660 1
    3813     3659     3688 1
    3814     3659     3689 1
    3815     3660     3690 1
    3816     3660     3691 1
    3817     3660     3692 1
    3818     3661     3662 1
    3819     3661     3693 1
    3820     3661     3694 1
    3821     3662     3663 1
    3822     3662     3695 1
    3823     3662     3696 1
    3824     3663     3664 1
    3825     3663     3697 1
    3826     3663     3698 1
    3827     3664     3665 1
    3828     3664     3699 1
    3829     3664     3700 1
    3830     3665     3666 1
    3831     3665     3701 1
    3832     3665     3702 1
    3833     3666     3667 1
    3834     3666     3703 1
    3835     3666     3704 1
    3836     3667     3668 1
    3837     3667     3705 1
    3838     3667     3706 1
    3839     3668     3707 1
    3840     3668     3708 1
    3841     3668     3709 1
    3842     3710     3711 1
    3843     3710     3730 1
    3844     3710     3731 1
    3845     3711     3712 1
    3846     3711     3722 1
    3847     3711     3732 1
    3848     3712     3713 1
    3849     3712     3733 1
    3850     3712     3734 1
    3851     3713     3714 1
    3852     3713     3735 1
    3853     3713     3736 1
    3854     3714     3715 1
    3855     3714     3737 1
    3856     3714     3738 1
    3857     3715     3716 1
    3858     3715     3739 1
    3859     3715     3740 1
    3860     3716     3717 1
    3861     3716     3741 1
    3862     3716     3742 1
    3863     3717     3718 1
    3864     3717     3743 1
    3865     3717     3744 1
    3866     3718     3719 1
    3867     3718     3745 1
    3868     3718     3746 1
    3869     3719     3720 1
    3870     3719     3747 1
    3871     3719     3748 1
    3872     3720     3721 1
    3873     3720     3749 1
    3874     3720     3750 1
    3875     3721     3751 1
    3876     3721     3752 1
    3877     3721     3753 1
    3878     3722     3723 1
    3879     3722     3754 1
    3880     3722     3755 1
    3881     3723     3724 1
    3882     3723     3756 1
    3883     3723     3757 1
    3884     3724     3725 1
    3885     3724     3758 1
    3886     3724     3759 1
    3887     3725     3726 1
    3888     3725     3760 1
    3889     3725     3761 1
    3890     3726     3727 1
    3891     3726     3762 1
    3892     3726     3763 1
    3893     3727     3728 1
    3894     3727     3764 1
    3895     3727     3765 1
    3896     3728     3729 1
    3897     3728     3766 1
    3898     3728     3767 1
    3899     3729     3768 1
    3900     3729     3769 1
    3901     3729     3770 1
    3902     3771     3772 1
    3903     3771     3778 1
    3904     3771     3794 1
    3905     3771     3855 1
    3906     3772     3773 1
    3907     3772     3776 1
    3908     3773     3774 1
    3909     3773     3777 1
    3910     3774     3775 1
    3911     3775     3776 1
    3912     3776     3782 1
    3913     3777     3778 1
    3914     3777     3781 1
    3915     3778     3779 1
    3916     3779     3780 1
    3917     3779     3783 1
    3918     3780     3781 1
    3919     3780     3786 1
    3920     3784     3785 1
    3921     3784     3792 1
    3922     3785     3786 1
    3923     3785     3793 1
    3924     3786     3787 1
    3925     3787     3788 1
    3926     3787     3791 1
    3927     3788     3789 1
    3928     3789     3790 1
    3929     3790     3791 1
    3930     3791     3792 1
    3931     3792     3920 1
    3932     3794     3795 1
    3933     3794     3814 1
    3934     3794     3815 1
    3935     3795     3796 1
    3936     3795     3806 1
    3937     3795     3816 1
    3938     3796     3797 1
    3939     3796     3817 1
    3940     3796     3818 1
    3941     3797     3798 1
    3942     3797     3819 1
    3943     3797     3820 1
    3944     3798     3799 1
    3945     3798     3821 1
    3946     3798     3822 1
    3947     3799     3800 1
    3948     3799     3823 1
    3949     3799     3824 1
    3950     3800     3801 1
    3951     3800     3825 1
    3952     3800     3826 1
    3953     3801     3802 1
    3954     3801     3827 1
    3955     3801     3828 1
    3956     3802     3803 1
    3957     3802     3829 1
    3958     3802     3830 1
    3959     3803     3804 1
    3960     3803     3831 1
    3961     3803     3832 1
    3962     3804     3805 1
    3963     3804     3833 1
    3964     3804     3834 1
    3965     3805     3835 1
    3966     3805     3836 1
    3967     3805     3837 1
    3968     3806     3807 1
    3969     3806     3838 1
    3970     3806     3839 1
    3971     3807     3808 1
    3972     3807     3840 1
    3973     3807     3841 1
    3974     3808     3809 1
    3975     3808     3842 1
    3976     3808     3843 1
    3977     3809     3810 1
    3978     3809     3844 1
    3979     3809     3845 1
    3980     3810     3811 1
    3981     3810     3846 1
    3982     3810     3847 1
    3983     3811     3812 1
    3984     3811     3848 1
    3985     3811     3849 1
    3986     3812     3813 1
    3987     3812     3850 1
    3988     3812     3851 1
    3989     3813     3852 1
    3990     3813     3853 1
    3991     3813     3854 1
    3992     3855     3856 1
    3993     3855     3875 1
    3994     3855     3876 1
    3995     3856     3857 1
    3996     3856     3867 1
    3997     3856     3877 1
    3998     3857     3858 1
    3999     3857     3878 1
    4000     3857     3879 1
    4001     3858     3859 1
    4002     3858     3880 1
    4003     3858     3881 1
    4004     3859     3860 1
    4005     3859     3882 1
    4006     3859     3883 1
    4007     3860     3861 1
    4008     3860     3884 1
    4009     3860     3885 1
    4010     3861     3862 1
    4011     3861     3886 1
    4012     3861     3887 1
    4013     3862     3863 1
    4014     3862     3888 1
    4015     3862     3889 1
    4016     3863     3864 1
    4017     3863     3890 1
    4018     3863     3891 1
    4019     3864     3865 1
    4020     3864     3892 1
    4021     3864     3893 1
    4022     3865     3866 1
    4023     3865     3894 1
    4024     3865     3895 1
    4025     3866     3896 1
    4026     3866     3897 1
    4027     3866     3898 1
    4028     3867     3868 1
    4029     3867     3899 1
    4030     3867     3900 1
    4031     3868     3869 1
    4032     3868     3901 1
    4033     3868     3902 1
    4034     3869     3870 1
    4035     3869     3903 1
    4036     3869     3904 1
    4037     3870     3871 1
    4038     3870     3905 1
    4039     3870     3906 1
    4040     3871     3872 1
    4041     3871     3907 1
    4042     3871     3908 1
    4043     3872     3873 1
    4044     3872     3909 1
    4045     3872     3910 1
    4046     3873     3874 1
    4047     3873     3911 1
    4048     3873     3912 1
    4049     3874     3913 1
    4050     3874     3914 1
    4051     3874     3915 1
    4052     3916     3917 1
    4053     3916     3923 1
    4054     3916     3939 1
    4055     3916     4000 1
    4056     3917     3918 1
    4057     3917     3921 1
    4058     3918     3919 1
    4059     3918     3922 1
    4060     3919     3920 1
    4061     3920     3921 1
    4062     3921     3927 1
    4063     3922     3923 1
    4064     3922     3926 1
    4065     3923     3924 1
    4066     3924     3925 1
    4067     3924     3928 1
    4068     3925     3926 1
    4069     3925     3931 1
    4070     3929     3930 1
    4071     3929     3937 1
    4072     3930     3931 1
    4073     3930     3938 1
    4074     3931     3932 1
    4075     3932     3933 1
    4076     3932     3936 1
    4077     3933     3934 1
    4078     3934     3935 1
    4079     3935     3936 1
    4080     3936     3937 1
    4081     3937     4065 1
    4082     3939     3940 1
    4083     3939     3959 1
    4084     3939     3960 1
    4085     3940     3941 1
    4086     3940     3951 1
    4087     3940     3961 1
    4088     3941     3942 1
    4089     3941     3962 1
    4090     3941     3963 1
    4091     3942     3943 1
    4092     3942     3964 1
    4093     3942     3965 1
    4094     3943     3944 1
    4095     3943     3966 1
    4096     3943     3967 1
    4097     3944     3945 1
    4098     3944     3968 1
    4099     3944     3969 1
    4100     3945     3946 1
    4101     3945     3970 1
    4102     3945     3971 1
    4103     3946     3947 1
    4104     3946     3972 1
    4105     3946     3973 1
    4106     3947     3948 1
    4107     3947     3974 1
    4108     3947     3975 1
    4109     3948     3949 1
    4110     3948     3976 1
    4111     3948     3977 1
    4112     3949     3950 1
    4113     3949     3978 1
    4114     3949     3979 1
    4115     3950     3980 1
    4116     3950     3981 1
    4117     3950     3982 1
    4118     3951     3952 1
    4119     3951     3983 1
    4120     3951     3984 1
    4121     3952     3953 1
    4122     3952     3985 1
    4123     3952     3986 1
    4124     3953     3954 1
    4125     3953     3987 1
    4126     3953     3988 1
    4127     3954     3955 1
    4128     3954     3989 1
    4129     3954     3990 1
    4130     3955     3956 1
    4131     3955     3991 1
    4132     3955     3992 1
    4133     3956     3957 1
    4134     3956     3993 1
    4135     3956     3994 1
    4136     3957     3958 1
    4137     3957     3995 1
    4138     3957     3996 1
    4139     3958     3997 1
    4140     3958     3998 1
    4141     3958     3999 1
    4142     4000     4001 1
    4143     4000     4020 1
    4144     4000     4021 1
    4145     4001     4002 1
    4146     4001     4012 1
    4147     4001     4022 1
    4148     4002     4003 1
    4149     4002     4023 1
    4150     4002     4024 1
    4151     4003     4004 1
    4152     4003     4025 1
    4153     4003     4026 1
    4154     4004     4005 1
    4155     4004     4027 1
    4156     4004     4028 1
    4157     4005     4006 1
    4158     4005     4029 1
    4159     4005     4030 1
    4160     4006     4007 1
    4161     4006     4031 1
    4162     4006     4032 1
    4163     4007     4008 1
    4164     4007     4033 1
    4165     4007     4034 1
    4166     4008     4009 1
    4167     4008     4035 1
    4168     4008     4036 1
    4169     4009     4010 1
    4170     4009     4037 1
    4171     4009     4038 1
    4172     4010     4011 1
    4173     4010     4039 1
    4174     4010     4040 1
    4175     4011     4041 1
    4176     4011     4042 1
    4177     4011     4043 1
    4178     4012     4013 1
    4179     4012     4044 1
    4180     4012     4045 1
    4181     4013     4014 1
    4182     4013     4046 1
    4183     4013     4047 1
    4184     4014     4015 1
    4185     4014     4048 1
    4186     4014     4049 1
    4187     4015     4016 1
    4188     4015     4050 1
    4189     4015     4051 1
    4190     4016     4017 1
    4191     4016     4052 1
    4192     4016     4053 1
    4193     4017     4018 1
    4194     4017     4054 1
    4195     4017     4055 1
    4196     4018     4019 1
    4197     4018     4056 1
    4198     4018     4057 1
    4199     4019     4058 1
    4200     4019     4059 1
    4201     4019     4060 1
    4202     4061     4062 1
    4203     4061     4068 1
    4204     4061     4084 1
    4205     4061     4145 1
    4206     4062     4063 1
    4207     4062     4066 1
    4208     4063     4064 1
    4209     4063     4067 1
    4210     4064     4065 1
    4211     4065     4066 1
    4212     4066     4072 1
    4213     4067     4068 1
    4214     4067     4071 1
    4215     4068     4069 1
    4216     4069     4070 1
    4217     4069     4073 1
    4218     4070     4071 1
    4219     4070     4076 1
    4220     4074     4075 1
    4221     4074     4082 1
    4222     4075     4076 1
    4223     4075     4083 1
    4224     4076     4077 1
    4225     4077     4078 1
    4226     4077     4081 1
    4227     4078     4079 1
    4228     4079     4080 1
    4229     4080     4081 1
    4230     4081     4082 1
    4231     4082     4210 1
    4232     4084     4085 1
    4233     4084     4104 1
    4234     4084     4105 1
    4235     4085     4086 1
    4236     4085     4096 1
    4237     4085     4106 1
    4238     4086     4087 1
    4239     4086     4107 1
    4240     4086     4108 1
    4241     4087     4088 1
    4242     4087     4109 1
    4243     4087     4110 1
    4244     4088     4089 1
    4245     4088     4111 1
    4246     4088     4112 1
    4247     4089     4090 1
    4248     4089     4113 1
    4249     4089     4114 1
    4250     4090     4091 1
    4251     4090     4115 1
    4252     4090     4116 1
    4253     4091     4092 1
    4254     4091     4117 1
    4255     4091     4118 1
    4256     4092     4093 1
    4257     4092     4119 1
    4258     4092     4120 1
    4259     4093     4094 1
    4260     4093     4121 1
    4261     4093     4122 1
    4262     4094     4095 1
    4263     4094     4123 1
    4264     4094     4124 1
    4265     4095     4125 1
    4266     4095     4126 1
    4267     4095     4127 1
    4268     4096     4097 1
    4269     4096     4128 1
    4270     4096     4129 1
    4271     4097     4098 1
    4272     4097     4130 1
    4273     4097     4131 1
    4274     4098     4099 1
    4275     4098     4132 1
    4276     4098     4133 1
    4277     4099     4100 1
    4278     4099     4134 1
    4279     4099     4135 1
    4280     4100     4101 1
    4281     4100     4136 1
    4282     4100     4137 1
    4283     4101     4102 1
    4284     4101     4138 1
    4285     4101     4139 1
    4286     4102     4103 1
    4287     4102     4140 1
    4288     4102     4141 1
    4289     4103     4142 1
    4290     4103     4143 1
    4291     4103     4144 1
    4292     4145     4146 1
    4293     4145     4165 1
    4294     4145     4166 1
    4295     4146     4147 1
    4296     4146     4157 1
    4297     4146     4167 1
    4298     4147     4148 1
    4299     4147     4168 1
    4300     4147     4169 1
    4301     4148     4149 1
    4302     4148     4170 1
    4303     4148     4171 1
    4304     4149     4150 1
    4305     4149     4172 1
    4306     4149     4173 1
    4307     4150     4151 1
    4308     4150     4174 1
    4309     4150     4175 1
    4310     4151     4152 1
    4311     4151     4176 1
    4312     4151     4177 1
    4313     4152     4153 1
    4314     4152     4178 1
    4315     4152     4179 1
    4316     4153     4154 1
    4317     4153     4180 1
    4318     4153     4181 1
    4319     4154     4155 1
    4320     4154     4182 1
    4321     4154     4183 1
    4322     4155     4156 1
    4323     4155     4184 1
    4324     4155     4185 1
    4325     4156     4186 1
    4326     4156     4187 1
    4327     4156     4188 1
    4328     4157     4158 1
    4329     4157     4189 1
    4330     4157     4190 1
    4331     4158     4159 1
    4332     4158     4191 1
    4333     4158     4192 1
    4334     4159     4160 1
    4335     4159     4193 1
    4336     4159     4194 1
    4337     4160     4161 1
    4338     4160     4195 1
    4339     4160     4196 1
    4340     4161     4162 1
    4341     4161     4197 1
    4342     4161     4198 1
    4343     4162     4163 1
    4344     4162     4199 1
    4345     4162     4200 1
    4346     4163     4164 1
    4347     4163     4201 1
    4348     4163     4202 1
    4349     4164     4203 1
    4350     4164     4204 1
    4351     4164     4205 1
    4352     4206     4207 1
    4353     4206     4213 1
    4354     4206     4229 1
    4355     4206     4290 1
    4356     4207     4208 1
    4357     4207     4211 1
    4358     4208     4209 1
    4359     4208     4212 1
    4360     4209     4210 1
    4361     4210     4211 1
    4362     4211     4217 1
    4363     4212     4213 1
    4364     4212     4216 1
    4365     4213     4214 1
    4366     4214     4215 1
    4367     4214     4218 1
    4368     4215     4216 1
    4369     4215     4221 1
    4370     4219     4220 1
    4371     4219     4227 1
    4372     4220     4221 1
    4373     4220     4228 1
    4374     4221     4222 1
    4375     4222     4223 1
    4376     4222     4226 1
    4377     4223     4224 1
    4378     4224     4225 1
    4379     4225     4226 1
    4380     4226     4227 1
    4381     4227     4352 1
    4382     4229     4230 1
    4383     4229     4249 1
    4384     4229     4250 1
    4385     4230     4231 1
    4386     4230     4241 1
    4387     4230     4251 1
    4388     4231     4232 1
    4389     4231     4252 1
    4390     4231     4253 1
    4391     4232     4233 1
    4392     4232     4254 1
    4393     4232     4255 1
    4394     4233     4234 1
    4395     4233     4256 1
    4396     4233     4257 1
    4397     4234     4235 1
    4398     4234     4258 1
    4399     4234     4259 1
    4400     4235     4236 1
    4401     4235     4260 1
    4402     4235     4261 1
    4403     4236     4237 1
    4404     4236     4262 1
    4405     4236     4263 1
    4406     4237     4238 1
    4407     4237     4264 1
    4408     4237     4265 1
    4409     4238     4239 1
    4410     4238     4266 1
    4411     4238     4267 1
    4412     4239     4240 1
    4413     4239     4268 1
    4414     4239     4269 1
    4415     4240     4270 1
    4416     4240     4271 1
    4417     4240     4272 1
    4418     4241     4242 1
    4419     4241     4273 1
    4420     4241     4274 1
    4421     4242     4243 1
    4422     4242     4275 1
    4423     4242     4276 1
    4424     4243     4244 1
    4425     4243     4277 1
    4426     4243     4278 1
    4427     4244     4245 1
    4428     4244     4279 1
    4429     4244     4280 1
    4430     4245     4246 1
    4431     4245     4281 1
    4432     4245     4282 1
    4433     4246     4247 1
    4434     4246     4283 1
    4435     4246     4284 1
    4436     4247     4248 1
    4437     4247     4285 1
    4438     4247     4286 1
    4439     4248     4287 1
    4440     4248     4288 1
    4441     4248     4289 1
    4442     4290     4291 1
    4443     4290     4310 1
    4444     4290     4311 1
    4445     4291     4292 1
    4446     4291     4302 1
    4447     4291     4312 1
    4448     4292     4293 1
    4449     4292     4313 1
    4450     4292     4314 1
    4451     4293     4294 1
    4452     4293     4315 1
    4453     4293     4316 1
    4454     4294     4295 1
    4455     4294     4317 1
    4456     4294     4318 1
    4457     4295     4296 1
    4458     4295     4319 1
    4459     4295     4320 1
    4460     4296     4297 1
    4461     4296     4321 1
    4462     4296     4322 1
    4463     4297     4298 1
    4464     4297     4323 1
    4465     4297     4324 1
    4466     4298     4299 1
    4467     4298     4325 1
    4468     4298     4326 1
    4469     4299     4300 1
    4470     4299     4327 1
    4471     4299     4328 1
    4472     4300     4301 1
    4473     4300     4329 1
    4474     4300     4330 1
    4475     4301     4331 1
    4476     4301     4332 1
    4477     4301     4333 1
    4478     4302     4303 1
    4479     4302     4334 1
    4480     4302     4335 1
    4481     4303     4304 1
    4482     4303     4336 1
    4483     4303     4337 1
    4484     4304     4305 1
    4485     4304     4338 1
    4486     4304     4339 1
    4487     4305     4306 1
    4488     4305     4340 1
    4489     4305     4341 1
    4490     4306     4307 1
    4491     4306     4342 1
    4492     4306     4343 1
    4493     4307     4308 1
    4494     4307     4344 1
    4495     4307     4345 1
    4496     4308     4309 1
    4497     4308     4346 1
    4498     4308     4347 1
    4499     4309     4348 1
    4500     4309     4349 1
    4501     4309     4350 1
@<TRIPOS>SUBSTRUCTURE
       1 RES             1 RESIDUE    0 **** ROOT      0
