@<TRIPOS>MOLECULE
RES
36502 37751 1 0 1
SMALL
NO_CHARGES
@<TRIPOS>CRYSIN
  578.2524   422.3016   758.5764    90.0000    90.0000    90.0000 1 1
@<TRIPOS>ATOM
       1 C0          14.7833    15.1876    14.2983 C0            1 RES     
       2 C0          13.0521    14.6364    13.9513 C0            1 RES     
       3 C0          12.8480    13.3998    14.5503 C0            1 RES     
       4 S1          11.4178    12.5662    14.0905 S1            1 RES     
       5 C0          10.7182    13.5998    12.9962 C0            1 RES     
       6 C0          11.7479    14.7651    13.0352 C0            1 RES     
       7 C0          14.1016    12.7757    14.9753 C0            1 RES     
       8 C0          14.9949    13.6552    14.1156 C0            1 RES     
       9 C0          15.2733    13.0574    12.9252 C0            1 RES     
      10 C0          14.8479    11.7367    12.8043 C0            1 RES     
      11 S1          14.1082    11.0774    14.2735 S1            1 RES     
      12 H2          11.5937    15.5675    12.3238 H2            1 RES     
      13 H2          15.6045    13.5964    12.0527 H2            1 RES     
      14 N3           7.9846    10.8896    11.9305 N3            1 RES     
      15 C0           9.0505    11.5488    12.4098 C0            1 RES     
      16 C0           9.3119    12.9926    12.2714 C0            1 RES     
      17 C0           8.1993    13.5860    11.5005 C0            1 RES     
      18 N3           8.0913    14.9096    11.1608 N3            1 RES     
      19 S1           6.6424    14.9907    10.3426 S1            1 RES     
      20 N3           6.0997    13.4301    10.3407 N3            1 RES     
      21 C0           7.0675    12.7936    11.0139 C0            1 RES     
      22 C0           6.9596    11.4407    11.2239 C0            1 RES     
      23 H4           9.7414    10.9143    12.9190 H4            1 RES     
      24 C5          29.1614    19.1377    26.7032 C5            1 RES     
      25 C5          27.8726    18.9324    25.8574 C5            1 RES     
      26 C5          27.9541    19.5478    24.4219 C5            1 RES     
      27 C5          26.8298    19.1419    23.3497 C5            1 RES     
      28 C5          25.3526    19.7214    23.4407 C5            1 RES     
      29 C5          24.0906    19.1511    22.5138 C5            1 RES     
      30 C5          23.7884    19.4436    20.9148 C5            1 RES     
      31 C5          22.3184    19.1873    19.9910 C5            1 RES     
      32 C5          21.6724    17.8635    19.1306 C5            1 RES     
      33 C5          20.1774    17.3963    18.2414 C5            1 RES     
      34 C5          19.4729    17.5315    16.6104 C5            1 RES     
      35 C5          20.2690    18.8868    16.1599 C5            1 RES     
      36 C5          20.1969    20.2158    17.0417 C5            1 RES     
      37 C5          21.3795    21.2570    16.8280 C5            1 RES     
      38 C5          21.2176    22.6450    17.5584 C5            1 RES     
      39 C5          19.8646    23.3405    17.2924 C5            1 RES     
      40 C5          19.5269    23.5188    15.7923 C5            1 RES     
      41 C5          19.4916    24.9611    15.2737 C5            1 RES     
      42 C5          20.8073    25.7200    15.4075 C5            1 RES     
      43 C5          17.9957    16.7872    15.5311 C5            1 RES     
      44 C0          16.1933    16.0291    15.4403 C0            1 RES     
      45 C5          15.4984    16.8076    16.5867 C5            1 RES     
      46 C5          16.3537    17.0256    17.9270 C5            1 RES     
      47 C5          16.2772    15.8351    18.8983 C5            1 RES     
      48 C5          16.5683    14.4280    18.3275 C5            1 RES     
      49 C5          17.9063    14.2678    17.5732 C5            1 RES     
      50 C5          18.3272    12.8256    17.3227 C5            1 RES     
      51 C5          17.2433    12.0187    16.6071 C5            1 RES     
      52 C5          17.5975    10.5352    16.6003 C5            1 RES     
      53 C5          16.3751     9.7297    16.1815 C5            1 RES     
      54 C5          16.5730     8.2400    16.3438 C5            1 RES     
      55 C5          16.0031    18.3924    18.6080 C5            1 RES     
      56 C5          16.9586    19.0827    19.6555 C5            1 RES     
      57 C5          17.1056    18.5869    21.1199 C5            1 RES     
      58 C5          15.7520    18.4614    21.8309 C5            1 RES     
      59 C5          15.8677    18.2812    23.3614 C5            1 RES     
      60 C5          14.5411    17.7918    23.9832 C5            1 RES     
      61 C5          13.3055    18.6814    23.7322 C5            1 RES     
      62 C5          13.3371    20.0642    24.4095 C5            1 RES     
      63 C5          13.4033    20.0318    25.9493 C5            1 RES     
      64 C5          12.2163    19.3111    26.5946 C5            1 RES     
      65 H6          30.0483    18.6668    26.2209 H6            1 RES     
      66 H6          29.3903    20.2101    26.8809 H6            1 RES     
      67 H6          29.0547    18.6521    27.7029 H6            1 RES     
      68 H6          27.7376    17.8336    25.7770 H6            1 RES     
      69 H6          27.0171    19.3635    26.4157 H6            1 RES     
      70 H6          28.0842    20.6505    24.5057 H6            1 RES     
      71 H6          28.9178    19.1542    24.0189 H6            1 RES     
      72 H6          26.7866    18.0357    23.3708 H6            1 RES     
      73 H6          27.2291    19.4626    22.3666 H6            1 RES     
      74 H6          25.4240    20.8333    23.3852 H6            1 RES     
      75 H6          25.0767    19.5077    24.5011 H6            1 RES     
      76 H6          23.2251    19.6130    23.0386 H6            1 RES     
      77 H6          24.0524    18.0645    22.7031 H6            1 RES     
      78 H6          23.9024    20.5563    20.9286 H6            1 RES     
      79 H6          24.6687    19.0875    20.3412 H6            1 RES     
      80 H6          22.4742    19.9698    19.2196 H6            1 RES     
      81 H6          21.5482    19.6052    20.6742 H6            1 RES     
      82 H6          22.5179    17.5499    18.4842 H6            1 RES     
      83 H6          21.6525    17.1530    19.9819 H6            1 RES     
      84 H6          19.3971    17.6881    18.9509 H6            1 RES     
      85 H6          20.2697    16.3064    18.3371 H6            1 RES     
      86 H6          20.2007    16.8583    16.1043 H6            1 RES     
      87 H6          20.1566    19.1219    15.0825 H6            1 RES     
      88 H6          21.3569    18.6326    16.2654 H6            1 RES     
      89 H6          20.2250    19.9935    18.1268 H6            1 RES     
      90 H6          19.2306    20.6908    16.8117 H6            1 RES     
      91 H6          21.5310    21.4446    15.7519 H6            1 RES     
      92 H6          22.3547    20.8361    17.1672 H6            1 RES     
      93 H6          22.0450    23.3327    17.2583 H6            1 RES     
      94 H6          21.3108    22.5142    18.6615 H6            1 RES     
      95 H6          19.0978    22.6863    17.7517 H6            1 RES     
      96 H6          19.7696    24.3047    17.8432 H6            1 RES     
      97 H6          20.1855    22.9211    15.1406 H6            1 RES     
      98 H6          18.5043    23.1154    15.6379 H6            1 RES     
      99 H6          18.6939    25.5230    15.8032 H6            1 RES     
     100 H6          19.2242    24.9127    14.1946 H6            1 RES     
     101 H6          21.6291    25.1863    14.8870 H6            1 RES     
     102 H6          20.6843    26.7231    14.9433 H6            1 RES     
     103 H6          21.0694    25.8628    16.4758 H6            1 RES     
     104 H6          18.5481    15.9760    15.0041 H6            1 RES     
     105 H6          17.9654    17.5377    14.7131 H6            1 RES     
     106 H6          15.2972    17.7881    16.1141 H6            1 RES     
     107 H6          14.5298    16.3283    16.8299 H6            1 RES     
     108 H6          17.3993    17.1584    17.7212 H6            1 RES     
     109 H6          16.9958    16.0203    19.7162 H6            1 RES     
     110 H6          15.2607    15.8033    19.3340 H6            1 RES     
     111 H6          16.5655    13.7382    19.1970 H6            1 RES     
     112 H6          15.7311    14.1471    17.6546 H6            1 RES     
     113 H6          17.8113    14.6818    16.5888 H6            1 RES     
     114 H6          18.7205    14.7743    18.1158 H6            1 RES     
     115 H6          19.2608    12.8119    16.7135 H6            1 RES     
     116 H6          18.5414    12.3749    18.3118 H6            1 RES     
     117 H6          16.3059    12.1127    17.1870 H6            1 RES     
     118 H6          17.0616    12.4008    15.5764 H6            1 RES     
     119 H6          18.4624    10.3366    15.9294 H6            1 RES     
     120 H6          17.8601    10.2374    17.6369 H6            1 RES     
     121 H6          16.1789     9.9380    15.1212 H6            1 RES     
     122 H6          15.5042    10.0224    16.8152 H6            1 RES     
     123 H6          17.3857     7.8951    15.6746 H6            1 RES     
     124 H6          15.6252     7.7264    16.0745 H6            1 RES     
     125 H6          16.8180     8.0081    17.4013 H6            1 RES     
     126 H6          14.9643    18.3743    18.9832 H6            1 RES     
     127 H6          16.0440    19.1238    17.7692 H6            1 RES     
     128 H6          17.9691    19.2173    19.2255 H6            1 RES     
     129 H6          16.5685    20.1186    19.7590 H6            1 RES     
     130 H6          17.6646    17.6306    21.1907 H6            1 RES     
     131 H6          17.7171    19.3524    21.6565 H6            1 RES     
     132 H6          15.2415    17.5841    21.3842 H6            1 RES     
     133 H6          15.1506    19.3769    21.6472 H6            1 RES     
     134 H6          16.2047    19.2313    23.8368 H6            1 RES     
     135 H6          16.6297    17.5051    23.5921 H6            1 RES     
     136 H6          14.6740    17.6287    25.0736 H6            1 RES     
     137 H6          14.3249    16.7979    23.5355 H6            1 RES     
     138 H6          12.4059    18.1350    24.0817 H6            1 RES     
     139 H6          13.1685    18.8199    22.6400 H6            1 RES     
     140 H6          14.2014    20.6447    24.0238 H6            1 RES     
     141 H6          12.4117    20.6079    24.1158 H6            1 RES     
     142 H6          14.3485    19.5587    26.2858 H6            1 RES     
     143 H6          13.4042    21.0823    26.3132 H6            1 RES     
     144 H6          11.2593    19.7834    26.2859 H6            1 RES     
     145 H6          12.2018    18.2365    26.3200 H6            1 RES     
     146 H6          12.3017    19.3735    27.6999 H6            1 RES     
     147 C0           4.7963     7.7602     8.2660 C0            1 RES     
     148 C0           5.6494     7.0520     9.7465 C0            1 RES     
     149 C0           4.9844     7.4747    10.8905 C0            1 RES     
     150 S1           5.7924     7.1918    12.3801 S1            1 RES     
     151 C0           7.2052     6.4607    11.9061 C0            1 RES     
     152 C0           6.9774     6.4141    10.3680 C0            1 RES     
     153 C0           4.0535     8.5705    10.6180 C0            1 RES     
     154 C0           4.6607     8.9397     9.2743 C0            1 RES     
     155 C0           5.5708     9.9429     9.4058 C0            1 RES     
     156 C0           5.6361    10.5307    10.6668 C0            1 RES     
     157 S1           4.4449     9.9045    11.8197 S1            1 RES     
     158 H2           7.8085     6.0619     9.7689 H2            1 RES     
     159 H2           6.3387    10.1478     8.6779 H2            1 RES     
     160 N3           8.7550     6.6940    15.5799 N3            1 RES     
     161 C0           8.0324     6.8309    14.4576 C0            1 RES     
     162 C0           8.2830     6.1481    13.1758 C0            1 RES     
     163 C0           9.4784     5.2945    13.3395 C0            1 RES     
     164 N3          10.0280     4.5087    12.3600 N3            1 RES     
     165 S1          11.3100     3.7663    13.1220 S1            1 RES     
     166 N3          11.2714     4.3819    14.6548 N3            1 RES     
     167 C0          10.2112     5.1994    14.6042 C0            1 RES     
     168 C0           9.8536     5.9036    15.7278 C0            1 RES     
     169 H4           7.2222     7.5179    14.5621 H4            1 RES     
     170 C5         -11.1691    10.5573    -2.3874 C5            1 RES     
     171 C5          -9.9614    10.1153    -1.5131 C5            1 RES     
     172 C5          -8.5738    10.3070    -2.2088 C5            1 RES     
     173 C5          -7.2456    10.1870    -1.3144 C5            1 RES     
     174 C5          -6.7180     8.7779    -0.8023 C5            1 RES     
     175 C5          -5.4995     8.6144     0.3227 C5            1 RES     
     176 C5          -3.8730     8.8077     0.0972 C5            1 RES     
     177 C5          -2.5365     8.3026     1.1163 C5            1 RES     
     178 C5          -1.7108     9.0119     2.4298 C5            1 RES     
     179 C5          -0.4289     8.6103     3.6295 C5            1 RES     
     180 C5           1.3466     8.6396     3.7762 C5            1 RES     
     181 C5           1.6819     8.4923     2.1826 C5            1 RES     
     182 C5           1.0925     7.2810     1.3256 C5            1 RES     
     183 C5           1.0250     7.5097    -0.2464 C5            1 RES     
     184 C5           0.6160     6.2551    -1.1096 C5            1 RES     
     185 C5           1.4463     4.9881    -0.8085 C5            1 RES     
     186 C5           2.9771     5.1931    -0.9124 C5            1 RES     
     187 C5           3.6837     4.4474    -2.0504 C5            1 RES     
     188 C5           3.2060     4.8184    -3.4501 C5            1 RES     
     189 C5           2.7562     8.4947     5.1521 C5            1 RES     
     190 C0           3.3673     7.7748     6.8667 C0            1 RES     
     191 C5           2.6728     6.3889     6.8579 C5            1 RES     
     192 C5           1.1647     6.3458     6.3108 C5            1 RES     
     193 C5           0.1178     6.6905     7.3839 C5            1 RES     
     194 C5           0.3307     7.9871     8.1988 C5            1 RES     
     195 C5           0.5272     9.2786     7.3753 C5            1 RES     
     196 C5           0.3933    10.5690     8.1732 C5            1 RES     
     197 C5           1.3182    10.5996     9.3905 C5            1 RES     
     198 C5           0.9768    11.7814    10.2922 C5            1 RES     
     199 C5           1.6773    11.6078    11.6330 C5            1 RES     
     200 C5           1.2346    12.6249    12.6598 C5            1 RES     
     201 C5           0.8653     4.9937     5.5780 C5            1 RES     
     202 C5          -0.3377     4.8277     4.5720 C5            1 RES     
     203 C5          -1.8152     4.7060     5.0346 C5            1 RES     
     204 C5          -2.0089     3.6001     6.0800 C5            1 RES     
     205 C5          -3.4892     3.2335     6.3306 C5            1 RES     
     206 C5          -3.6646     2.4086     7.6247 C5            1 RES     
     207 C5          -2.8609     1.0938     7.7051 C5            1 RES     
     208 C5          -3.2904    -0.0059     6.7161 C5            1 RES     
     209 C5          -4.7395    -0.5031     6.8869 C5            1 RES     
     210 C5          -5.0208    -1.0951     8.2708 C5            1 RES     
     211 H6         -11.1097    11.6373    -2.6537 H6            1 RES     
     212 H6         -11.2542     9.9713    -3.3273 H6            1 RES     
     213 H6         -12.1262    10.4256    -1.8277 H6            1 RES     
     214 H6         -10.0034    10.7466    -0.6011 H6            1 RES     
     215 H6         -10.1080     9.0541    -1.2272 H6            1 RES     
     216 H6          -8.5326     9.6687    -3.1202 H6            1 RES     
     217 H6          -8.6033    11.3618    -2.5731 H6            1 RES     
     218 H6          -7.4151    10.8486    -0.4429 H6            1 RES     
     219 H6          -6.4325    10.6167    -1.9333 H6            1 RES     
     220 H6          -6.5260     8.1445    -1.7003 H6            1 RES     
     221 H6          -7.6303     8.3366    -0.3341 H6            1 RES     
     222 H6          -5.6071     7.5392     0.5874 H6            1 RES     
     223 H6          -5.8230     9.2056     1.1967 H6            1 RES     
     224 H6          -3.7599     8.1776    -0.8202 H6            1 RES     
     225 H6          -3.7098     9.8441    -0.2634 H6            1 RES     
     226 H6          -1.7631     8.1967     0.3274 H6            1 RES     
     227 H6          -2.8307     7.2623     1.3731 H6            1 RES     
     228 H6          -1.4618    10.0243     2.0502 H6            1 RES     
     229 H6          -2.5954     9.1359     3.0871 H6            1 RES     
     230 H6          -0.7626     7.6332     3.9918 H6            1 RES     
     231 H6          -0.7129     9.3269     4.4113 H6            1 RES     
     232 H6           1.4543     9.7474     3.7623 H6            1 RES     
     233 H6           2.7511     8.6608     1.9436 H6            1 RES     
     234 H6           1.1599     9.3579     1.6953 H6            1 RES     
     235 H6           0.0481     7.0439     1.6096 H6            1 RES     
     236 H6           1.7191     6.4045     1.5523 H6            1 RES     
     237 H6           1.9921     7.8881    -0.6174 H6            1 RES     
     238 H6           0.3025     8.3181    -0.5065 H6            1 RES     
     239 H6           0.7017     6.4959    -2.1969 H6            1 RES     
     240 H6          -0.4544     5.9981    -0.9345 H6            1 RES     
     241 H6           1.1972     4.7094     0.2341 H6            1 RES     
     242 H6           1.1159     4.1127    -1.4140 H6            1 RES     
     243 H6           3.2550     6.2592    -0.9574 H6            1 RES     
     244 H6           3.4227     4.8054     0.0275 H6            1 RES     
     245 H6           3.5626     3.3536    -1.9044 H6            1 RES     
     246 H6           4.7671     4.6897    -1.9752 H6            1 RES     
     247 H6           3.3145     5.9076    -3.6318 H6            1 RES     
     248 H6           3.8280     4.2703    -4.1915 H6            1 RES     
     249 H6           2.1485     4.5167    -3.5951 H6            1 RES     
     250 H6           2.9249     9.5774     5.3524 H6            1 RES     
     251 H6           3.6339     8.2989     4.5004 H6            1 RES     
     252 H6           3.3269     5.8047     6.1825 H6            1 RES     
     253 H6           2.7210     5.9407     7.8697 H6            1 RES     
     254 H6           1.0029     7.0518     5.5180 H6            1 RES     
     255 H6          -0.8646     6.7656     6.8850 H6            1 RES     
     256 H6           0.0723     5.8565     8.1095 H6            1 RES     
     257 H6          -0.5737     8.1031     8.8316 H6            1 RES     
     258 H6           1.2072     7.8383     8.8638 H6            1 RES     
     259 H6           1.5312     9.3121     7.0005 H6            1 RES     
     260 H6          -0.1871     9.3168     6.5373 H6            1 RES     
     261 H6           0.6215    11.4386     7.5139 H6            1 RES     
     262 H6          -0.6629    10.6386     8.5005 H6            1 RES     
     263 H6           1.1303     9.6874     9.9876 H6            1 RES     
     264 H6           2.3909    10.6108     9.0895 H6            1 RES     
     265 H6           1.2588    12.7433     9.8097 H6            1 RES     
     266 H6          -0.1175    11.7700    10.4781 H6            1 RES     
     267 H6           2.7565    11.7298    11.4699 H6            1 RES     
     268 H6           1.4459    10.5959    12.0431 H6            1 RES     
     269 H6           1.5117    13.6429    12.3221 H6            1 RES     
     270 H6           1.7432    12.3999    13.6217 H6            1 RES     
     271 H6           0.1371    12.5522    12.8094 H6            1 RES     
     272 H6           0.8855     4.1579     6.3000 H6            1 RES     
     273 H6           1.7340     4.8662     4.8930 H6            1 RES     
     274 H6          -0.2799     5.5906     3.7727 H6            1 RES     
     275 H6          -0.1397     3.8688     4.0454 H6            1 RES     
     276 H6          -2.2221     5.6664     5.4142 H6            1 RES     
     277 H6          -2.4132     4.4442     4.1281 H6            1 RES     
     278 H6          -1.5464     3.9687     7.0181 H6            1 RES     
     279 H6          -1.4889     2.6778     5.7446 H6            1 RES     
     280 H6          -3.9056     2.6898     5.4512 H6            1 RES     
     281 H6          -4.0888     4.1603     6.4633 H6            1 RES     
     282 H6          -4.7423     2.2038     7.7975 H6            1 RES     
     283 H6          -3.3232     3.0524     8.4638 H6            1 RES     
     284 H6          -2.9453     0.6963     8.7370 H6            1 RES     
     285 H6          -1.7837     1.3119     7.5535 H6            1 RES     
     286 H6          -3.1549     0.3592     5.6763 H6            1 RES     
     287 H6          -2.6093    -0.8745     6.8566 H6            1 RES     
     288 H6          -5.4566     0.3188     6.6853 H6            1 RES     
     289 H6          -4.9186    -1.2992     6.1318 H6            1 RES     
     290 H6          -4.3252    -1.9347     8.4840 H6            1 RES     
     291 H6          -4.9229    -0.3257     9.0639 H6            1 RES     
     292 H6          -6.0617    -1.4802     8.3042 H6            1 RES     
     293 C0          12.8016     7.8315    19.5445 C0            1 RES     
     294 C0          11.0265     8.3208    19.7205 C0            1 RES     
     295 C0          10.2705     7.1809    19.9629 C0            1 RES     
     296 S1           8.5666     7.3673    19.8452 S1            1 RES     
     297 C0           8.3926     8.9682    19.4426 C0            1 RES     
     298 C0           9.8858     9.4043    19.4350 C0            1 RES     
     299 C0          11.0165     5.9520    19.6896 C0            1 RES     
     300 C0          12.0957     6.6250    18.8572 C0            1 RES     
     301 C0          11.8009     6.5652    17.5300 C0            1 RES     
     302 C0          10.7020     5.7775    17.1956 C0            1 RES     
     303 S1           9.9680     4.9374    18.5725 S1            1 RES     
     304 H2          10.0905    10.4139    19.0997 H2            1 RES     
     305 H2          12.2302     7.2268    16.7955 H2            1 RES     
     306 N3           4.4869     8.5369    18.7266 N3            1 RES     
     307 C0           5.7997     8.3669    18.9458 C0            1 RES     
     308 C0           6.7913     9.4382    19.1486 C0            1 RES     
     309 C0           6.0878    10.7347    19.0557 C0            1 RES     
     310 N3           6.6788    11.9649    19.1831 N3            1 RES     
     311 S1           5.4092    13.0317    19.0238 S1            1 RES     
     312 N3           4.1006    12.0560    18.7677 N3            1 RES     
     313 C0           4.6462    10.8333    18.8156 C0            1 RES     
     314 C0           3.8419     9.7332    18.6455 C0            1 RES     
     315 H4           6.0939     7.3409    18.9526 H4            1 RES     
     316 C5          28.7235    -0.9535    26.2922 C5            1 RES     
     317 C5          27.4215    -0.1684    25.9653 C5            1 RES     
     318 C5          27.5989     0.9132    24.8497 C5            1 RES     
     319 C5          26.2837     1.5700    24.2037 C5            1 RES     
     320 C5          25.4131     2.6336    25.0017 C5            1 RES     
     321 C5          23.9176     3.1585    24.4869 C5            1 RES     
     322 C5          23.5765     4.2306    23.2753 C5            1 RES     
     323 C5          22.0857     5.0907    22.9321 C5            1 RES     
     324 C5          20.6863     4.7267    22.0269 C5            1 RES     
     325 C5          19.0637     5.4180    21.6619 C5            1 RES     
     326 C5          18.3017     6.5595    20.5256 C5            1 RES     
     327 C5          19.6309     7.4643    20.2289 C5            1 RES     
     328 C5          20.4501     8.1400    21.4211 C5            1 RES     
     329 C5          21.9588     8.5242    21.0978 C5            1 RES     
     330 C5          22.7131     9.3528    22.2072 C5            1 RES     
     331 C5          21.9509    10.6106    22.6784 C5            1 RES     
     332 C5          21.5333    11.5655    21.5338 C5            1 RES     
     333 C5          22.2208    12.9356    21.5113 C5            1 RES     
     334 C5          23.7375    12.8865    21.3623 C5            1 RES     
     335 C5          16.5096     7.1115    19.9054 C5            1 RES     
     336 C0          14.6028     7.3571    20.2732 C0            1 RES     
     337 C5          14.6506     7.7612    21.7691 C5            1 RES     
     338 C5          15.6849     6.9576    22.6964 C5            1 RES     
     339 C5          15.1183     5.6319    23.2330 C5            1 RES     
     340 C5          14.4846     4.6604    22.2108 C5            1 RES     
     341 C5          15.3676     4.2798    21.0023 C5            1 RES     
     342 C5          14.8718     3.0813    20.2039 C5            1 RES     
     343 C5          13.4245     3.2492    19.7399 C5            1 RES     
     344 C5          12.8904     1.9396    19.1690 C5            1 RES     
     345 C5          11.3784     2.0379    19.0185 C5            1 RES     
     346 C5          10.7404     0.7173    18.6528 C5            1 RES     
     347 C5          16.2654     7.8750    23.8261 C5            1 RES     
     348 C5          17.5964     7.5255    24.5962 C5            1 RES     
     349 C5          17.6765     6.4233    25.6874 C5            1 RES     
     350 C5          16.6154     6.6073    26.7800 C5            1 RES     
     351 C5          16.8555     5.7355    28.0332 C5            1 RES     
     352 C5          15.6005     5.6636    28.9309 C5            1 RES     
     353 C5          15.0442     7.0142    29.4284 C5            1 RES     
     354 C5          15.9451     7.7769    30.4176 C5            1 RES     
     355 C5          16.2281     7.0381    31.7406 C5            1 RES     
     356 C5          14.9627     6.7138    32.5396 C5            1 RES     
     357 H6          29.1095    -1.4979    25.4002 H6            1 RES     
     358 H6          29.5334    -0.2978    26.6771 H6            1 RES     
     359 H6          28.5275    -1.7292    27.0710 H6            1 RES     
     360 H6          26.6893    -0.9294    25.6236 H6            1 RES     
     361 H6          27.0512     0.2973    26.9010 H6            1 RES     
     362 H6          28.3298     1.6779    25.1975 H6            1 RES     
     363 H6          28.1032     0.3600    24.0217 H6            1 RES     
     364 H6          25.6387     0.7176    23.9151 H6            1 RES     
     365 H6          26.6300     2.0805    23.2827 H6            1 RES     
     366 H6          26.0788     3.4933    25.2512 H6            1 RES     
     367 H6          25.2393     2.1176    25.9763 H6            1 RES     
     368 H6          23.5509     3.6675    25.4057 H6            1 RES     
     369 H6          23.3145     2.2444    24.3504 H6            1 RES     
     370 H6          24.2886     5.0413    23.5702 H6            1 RES     
     371 H6          24.0061     3.8192    22.3388 H6            1 RES     
     372 H6          22.5229     5.9746    22.4230 H6            1 RES     
     373 H6          21.7978     5.4529    23.9423 H6            1 RES     
     374 H6          21.0994     4.3961    21.0516 H6            1 RES     
     375 H6          20.4128     3.8034    22.5770 H6            1 RES     
     376 H6          18.7020     5.6747    22.6622 H6            1 RES     
     377 H6          18.5504     4.4853    21.3935 H6            1 RES     
     378 H6          18.4418     5.9383    19.6126 H6            1 RES     
     379 H6          19.4966     8.1761    19.3898 H6            1 RES     
     380 H6          20.3954     6.7389    19.8436 H6            1 RES     
     381 H6          20.5238     7.4721    22.3021 H6            1 RES     
     382 H6          19.8873     9.0392    21.7160 H6            1 RES     
     383 H6          22.0140     9.0818    20.1480 H6            1 RES     
     384 H6          22.5764     7.6147    20.9117 H6            1 RES     
     385 H6          23.7219     9.6567    21.8364 H6            1 RES     
     386 H6          22.8936     8.7194    23.1066 H6            1 RES     
     387 H6          21.0357    10.2353    23.1768 H6            1 RES     
     388 H6          22.4961    11.1592    23.4808 H6            1 RES     
     389 H6          21.6354    11.0984    20.5402 H6            1 RES     
     390 H6          20.4498    11.7713    21.6596 H6            1 RES     
     391 H6          21.9657    13.4905    22.4383 H6            1 RES     
     392 H6          21.8025    13.4956    20.6454 H6            1 RES     
     393 H6          24.0294    12.3390    20.4425 H6            1 RES     
     394 H6          24.1186    13.9289    21.2920 H6            1 RES     
     395 H6          24.2020    12.4072    22.2482 H6            1 RES     
     396 H6          16.4266     6.4695    18.9988 H6            1 RES     
     397 H6          16.7697     8.0734    19.4150 H6            1 RES     
     398 H6          14.9540     8.8243    21.7138 H6            1 RES     
     399 H6          13.6329     7.7073    22.2031 H6            1 RES     
     400 H6          16.5795     6.6908    22.1656 H6            1 RES     
     401 H6          15.9391     5.0953    23.7411 H6            1 RES     
     402 H6          14.3404     5.8624    23.9852 H6            1 RES     
     403 H6          14.2394     3.7376    22.7766 H6            1 RES     
     404 H6          13.5372     5.1103    21.8465 H6            1 RES     
     405 H6          15.3616     5.0820    20.2910 H6            1 RES     
     406 H6          16.4004     4.0738    21.3262 H6            1 RES     
     407 H6          15.5290     2.9291    19.3163 H6            1 RES     
     408 H6          14.9556     2.1958    20.8644 H6            1 RES     
     409 H6          12.8040     3.4787    20.6266 H6            1 RES     
     410 H6          13.3226     4.0853    19.0107 H6            1 RES     
     411 H6          13.3792     1.7010    18.1985 H6            1 RES     
     412 H6          13.1061     1.1308    19.8981 H6            1 RES     
     413 H6          11.1636     2.7581    18.2177 H6            1 RES     
     414 H6          10.9310     2.3690    19.9859 H6            1 RES     
     415 H6          11.1056     0.3870    17.6604 H6            1 RES     
     416 H6           9.6384     0.8553    18.6173 H6            1 RES     
     417 H6          10.9815    -0.0416    19.4261 H6            1 RES     
     418 H6          15.4671     8.1530    24.5373 H6            1 RES     
     419 H6          16.5697     8.7998    23.2854 H6            1 RES     
     420 H6          18.4274     7.3752    23.8813 H6            1 RES     
     421 H6          17.8686     8.4591    25.1349 H6            1 RES     
     422 H6          17.6143     5.3996    25.2628 H6            1 RES     
     423 H6          18.6863     6.5113    26.1569 H6            1 RES     
     424 H6          15.6406     6.3475    26.3195 H6            1 RES     
     425 H6          16.6022     7.6680    27.1089 H6            1 RES     
     426 H6          17.7336     6.1158    28.6047 H6            1 RES     
     427 H6          17.0847     4.6916    27.7268 H6            1 RES     
     428 H6          15.7935     4.9932    29.7949 H6            1 RES     
     429 H6          14.8012     5.1835    28.3262 H6            1 RES     
     430 H6          14.0626     6.8303    29.9109 H6            1 RES     
     431 H6          14.8339     7.6681    28.5572 H6            1 RES     
     432 H6          16.9109     8.0190    29.9263 H6            1 RES     
     433 H6          15.4435     8.7399    30.6613 H6            1 RES     
     434 H6          16.7918     6.1023    31.5480 H6            1 RES     
     435 H6          16.8695     7.6946    32.3679 H6            1 RES     
     436 H6          14.3934     7.6418    32.7609 H6            1 RES     
     437 H6          14.3112     6.0048    31.9890 H6            1 RES     
     438 H6          15.2443     6.2335    33.5002 H6            1 RES     
     439 C0          -0.4394     9.1348    15.7666 C0            1 RES     
     440 C0           0.1022     7.5481    16.5477 C0            1 RES     
     441 C0          -0.0231     7.6628    17.9264 C0            1 RES     
     442 S1           0.7189     6.4234    18.8566 S1            1 RES     
     443 C0           1.3915     5.4403    17.7005 C0            1 RES     
     444 C0           0.9330     6.1882    16.4160 C0            1 RES     
     445 C0          -0.2197     9.0490    18.3521 C0            1 RES     
     446 C0           0.2654     9.6659    17.0502 C0            1 RES     
     447 C0           1.5858     9.9873    17.1213 C0            1 RES     
     448 C0           2.1672     9.8561    18.3801 C0            1 RES     
     449 S1           1.0321     9.3818    19.6556 S1            1 RES     
     450 H2           1.3205     5.8129    15.4764 H2            1 RES     
     451 H2           2.2098    10.1313    16.2545 H2            1 RES     
     452 N3           3.3758     3.3048    20.4311 N3            1 RES     
     453 C0           2.6815     4.2295    19.7502 C0            1 RES     
     454 C0           2.3021     4.1563    18.3280 C0            1 RES     
     455 C0           2.8316     2.8904    17.7790 C0            1 RES     
     456 N3           2.6878     2.4705    16.4820 N3            1 RES     
     457 S1           3.4455     0.9870    16.4606 S1            1 RES     
     458 N3           4.0011     0.8027    18.0057 N3            1 RES     
     459 C0           3.5802     1.9305    18.5937 C0            1 RES     
     460 C0           3.8586     2.1379    19.9225 C0            1 RES     
     461 H4           2.4173     5.0762    20.3439 H4            1 RES     
     462 C5         -13.6369    23.1010    13.1234 C5            1 RES     
     463 C5         -12.7553    21.8345    13.3163 C5            1 RES     
     464 C5         -11.6273    21.6803    12.2439 C5            1 RES     
     465 C5         -10.4656    20.6027    12.5038 C5            1 RES     
     466 C5         -10.7336    19.0438    12.3476 C5            1 RES     
     467 C5          -9.6486    17.8783    12.8388 C5            1 RES     
     468 C5          -8.2492    17.4107    12.0925 C5            1 RES     
     469 C5          -7.2742    15.9738    12.3468 C5            1 RES     
     470 C5          -5.9961    15.5782    13.4051 C5            1 RES     
     471 C5          -4.9793    14.1658    13.8690 C5            1 RES     
     472 C5          -3.4894    13.3393    13.3476 C5            1 RES     
     473 C5          -3.5528    13.7847    11.7756 C5            1 RES     
     474 C5          -4.8430    13.4818    10.8852 C5            1 RES     
     475 C5          -5.0235    14.3886     9.5916 C5            1 RES     
     476 C5          -6.1914    13.9751     8.6162 C5            1 RES     
     477 C5          -6.1673    12.4872     8.2031 C5            1 RES     
     478 C5          -4.8201    12.0170     7.6029 C5            1 RES     
     479 C5          -4.8388    11.6296     6.1197 C5            1 RES     
     480 C5          -5.2478    12.7517     5.1719 C5            1 RES     
     481 C5          -2.1978    11.9923    13.9944 C5            1 RES     
     482 C0          -1.8228    10.3993    15.0683 C0            1 RES     
     483 C5          -3.1596     9.6298    14.9135 C5            1 RES     
     484 C5          -4.5029    10.5054    14.9787 C5            1 RES     
     485 C5          -4.9948    10.7595    16.4140 C5            1 RES     
     486 C5          -3.9716    11.3138    17.4319 C5            1 RES     
     487 C5          -3.2272    12.5996    17.0105 C5            1 RES     
     488 C5          -2.4934    13.3098    18.1406 C5            1 RES     
     489 C5          -1.5259    12.3841    18.8788 C5            1 RES     
     490 C5          -1.0050    13.0551    20.1455 C5            1 RES     
     491 C5          -0.3141    12.0146    21.0164 C5            1 RES     
     492 C5           0.0528    12.5464    22.3829 C5            1 RES     
     493 C5          -5.6145     9.9096    14.0491 C5            1 RES     
     494 C5          -6.8503    10.7587    13.5606 C5            1 RES     
     495 C5          -8.0503    11.1108    14.4815 C5            1 RES     
     496 C5          -8.6539     9.8698    15.1517 C5            1 RES     
     497 C5         -10.0258    10.1265    15.8151 C5            1 RES     
     498 C5         -10.4188     8.9858    16.7797 C5            1 RES     
     499 C5         -10.4783     7.5704    16.1680 C5            1 RES     
     500 C5         -11.5972     7.3427    15.1346 C5            1 RES     
     501 C5         -13.0290     7.5193    15.6780 C5            1 RES     
     502 C5         -13.3649     6.5671    16.8292 C5            1 RES     
     503 H6         -13.0324    24.0348    13.1822 H6            1 RES     
     504 H6         -14.1819    23.0996    12.1554 H6            1 RES     
     505 H6         -14.4018    23.1723    13.9336 H6            1 RES     
     506 H6         -12.2934    21.9397    14.3201 H6            1 RES     
     507 H6         -13.4174    20.9451    13.3126 H6            1 RES     
     508 H6         -12.0936    21.5697    11.2388 H6            1 RES     
     509 H6         -11.1252    22.6773    12.2419 H6            1 RES     
     510 H6         -10.0975    20.8058    13.5281 H6            1 RES     
     511 H6          -9.6626    20.8535    11.7821 H6            1 RES     
     512 H6         -11.0719    18.8645    11.2997 H6            1 RES     
     513 H6         -11.6482    18.8947    12.9701 H6            1 RES     
     514 H6         -10.2901    16.9701    12.7979 H6            1 RES     
     515 H6          -9.4450    18.0934    13.9019 H6            1 RES     
     516 H6          -8.6533    17.2775    11.0580 H6            1 RES     
     517 H6          -7.5993    18.3067    12.0169 H6            1 RES     
     518 H6          -6.8278    15.9005    11.3334 H6            1 RES     
     519 H6          -8.0499    15.1789    12.3784 H6            1 RES     
     520 H6          -5.2924    16.4260    13.2738 H6            1 RES     
     521 H6          -6.5444    15.7734    14.3491 H6            1 RES     
     522 H6          -5.7354    13.3906    14.0268 H6            1 RES     
     523 H6          -4.6886    14.5023    14.8729 H6            1 RES     
     524 H6          -2.7896    14.1613    13.6190 H6            1 RES     
     525 H6          -2.6245    13.5500    11.2171 H6            1 RES     
     526 H6          -3.5775    14.9064    11.7928 H6            1 RES     
     527 H6          -5.7819    13.6321    11.4541 H6            1 RES     
     528 H6          -4.7807    12.4213    10.5962 H6            1 RES     
     529 H6          -4.0834    14.4213     9.0161 H6            1 RES     
     530 H6          -5.2072    15.4534     9.8669 H6            1 RES     
     531 H6          -6.1623    14.6082     7.6965 H6            1 RES     
     532 H6          -7.1800    14.1698     9.0929 H6            1 RES     
     533 H6          -6.3580    11.9165     9.1330 H6            1 RES     
     534 H6          -7.0194    12.2199     7.5364 H6            1 RES     
     535 H6          -4.0094    12.7451     7.7715 H6            1 RES     
     536 H6          -4.5203    11.1003     8.1526 H6            1 RES     
     537 H6          -5.5206    10.7657     5.9738 H6            1 RES     
     538 H6          -3.8075    11.3065     5.8545 H6            1 RES     
     539 H6          -4.5846    13.6335     5.2897 H6            1 RES     
     540 H6          -5.1625    12.3794     4.1274 H6            1 RES     
     541 H6          -6.3019    13.0482     5.3487 H6            1 RES     
     542 H6          -1.4278    12.6726    14.4246 H6            1 RES     
     543 H6          -1.6940    11.7417    13.0370 H6            1 RES     
     544 H6          -3.0575     9.1858    13.9047 H6            1 RES     
     545 H6          -3.2064     8.8095    15.6564 H6            1 RES     
     546 H6          -4.3709    11.4795    14.5464 H6            1 RES     
     547 H6          -5.8355    11.4737    16.3611 H6            1 RES     
     548 H6          -5.3779     9.8071    16.8267 H6            1 RES     
     549 H6          -4.5444    11.5223    18.3594 H6            1 RES     
     550 H6          -3.2316    10.5152    17.6491 H6            1 RES     
     551 H6          -2.4489    12.3488    16.3172 H6            1 RES     
     552 H6          -3.9239    13.3173    16.5484 H6            1 RES     
     553 H6          -1.9308    14.1797    17.7287 H6            1 RES     
     554 H6          -3.2650    13.6850    18.8415 H6            1 RES     
     555 H6          -2.0892    11.4908    19.2083 H6            1 RES     
     556 H6          -0.6918    12.0528    18.2185 H6            1 RES     
     557 H6          -0.3189    13.8947    19.8967 H6            1 RES     
     558 H6          -1.8752    13.4469    20.7125 H6            1 RES     
     559 H6           0.6088    11.7055    20.5075 H6            1 RES     
     560 H6          -0.9982    11.1459    21.1682 H6            1 RES     
     561 H6           0.7892    13.3675    22.2798 H6            1 RES     
     562 H6           0.4977    11.7189    22.9761 H6            1 RES     
     563 H6          -0.8599    12.9080    22.9010 H6            1 RES     
     564 H6          -5.9454     8.9284    14.4337 H6            1 RES     
     565 H6          -5.0855     9.7311    13.0855 H6            1 RES     
     566 H6          -6.5085    11.6830    13.0577 H6            1 RES     
     567 H6          -7.3046    10.1579    12.7429 H6            1 RES     
     568 H6          -7.7894    11.8702    15.2477 H6            1 RES     
     569 H6          -8.8292    11.5738    13.8282 H6            1 RES     
     570 H6          -7.9214     9.5359    15.9144 H6            1 RES     
     571 H6          -8.7941     9.0704    14.3935 H6            1 RES     
     572 H6         -10.8083    10.2775    15.0359 H6            1 RES     
     573 H6          -9.9806    11.0546    16.4255 H6            1 RES     
     574 H6         -11.3848     9.2254    17.2724 H6            1 RES     
     575 H6          -9.6486     8.9639    17.5805 H6            1 RES     
     576 H6         -10.6021     6.8393    16.9927 H6            1 RES     
     577 H6          -9.5020     7.3321    15.6981 H6            1 RES     
     578 H6         -11.4510     8.0295    14.2745 H6            1 RES     
     579 H6         -11.4999     6.3025    14.7517 H6            1 RES     
     580 H6         -13.1914     8.5662    16.0068 H6            1 RES     
     581 H6         -13.7376     7.3135    14.8464 H6            1 RES     
     582 H6         -13.2281     5.5107    16.5134 H6            1 RES     
     583 H6         -12.7313     6.7710    17.7165 H6            1 RES     
     584 H6         -14.4231     6.7118    17.1326 H6            1 RES     
     585 C0           7.9471     0.6421    22.7548 C0            1 RES     
     586 C0           6.7967     1.7291    23.7120 C0            1 RES     
     587 C0           5.5863     1.0670    23.8734 C0            1 RES     
     588 S1           4.2791     2.0170    24.4569 S1            1 RES     
     589 C0           4.9598     3.5205    24.6343 C0            1 RES     
     590 C0           6.4198     3.2042    24.2006 C0            1 RES     
     591 C0           5.4706    -0.0989    22.9964 C0            1 RES     
     592 C0           6.5916     0.3190    22.0587 C0            1 RES     
     593 C0           6.1047     0.9925    20.9810 C0            1 RES     
     594 C0           4.7170     1.0126    20.8642 C0            1 RES     
     595 S1           3.8727     0.0700    22.1048 S1            1 RES     
     596 H2           7.0929     4.0497    24.1241 H2            1 RES     
     597 H2           6.7043     1.6449    20.3676 H2            1 RES     
     598 N3           1.4160     5.2276    25.3277 N3            1 RES     
     599 C0           2.4291     4.4179    24.9837 C0            1 RES     
     600 C0           3.8653     4.7247    25.1072 C0            1 RES     
     601 C0           3.9946     6.0871    25.6653 C0            1 RES     
     602 N3           5.1796     6.7282    25.9176 N3            1 RES     
     603 S1           4.7084     8.1912    26.5603 S1            1 RES     
     604 N3           3.0577     8.1225    26.5355 N3            1 RES     
     605 C0           2.8333     6.9073    26.0179 C0            1 RES     
     606 C0           1.5393     6.4808    25.8452 C0            1 RES     
     607 H4           2.1018     3.4853    24.5807 H4            1 RES     
     608 C5          17.1636   -16.2357    20.2225 C5            1 RES     
     609 C5          16.4829   -14.9035    20.6474 C5            1 RES     
     610 C5          17.0485   -13.6430    19.9143 C5            1 RES     
     611 C5          16.2348   -12.2632    20.0251 C5            1 RES     
     612 C5          16.2412   -11.4044    21.3626 C5            1 RES     
     613 C5          15.2282   -10.1060    21.6175 C5            1 RES     
     614 C5          15.3495    -8.5813    20.9896 C5            1 RES     
     615 C5          14.5536    -7.1001    21.4920 C5            1 RES     
     616 C5          13.0638    -6.3634    21.1076 C5            1 RES     
     617 C5          12.0633    -4.9457    21.5904 C5            1 RES     
     618 C5          11.8914    -3.2145    21.2054 C5            1 RES     
     619 C5          13.4310    -2.9645    20.7147 C5            1 RES     
     620 C5          14.6657    -3.3296    21.6586 C5            1 RES     
     621 C5          16.0590    -3.5528    20.9257 C5            1 RES     
     622 C5          17.3123    -3.7332    21.8654 C5            1 RES     
     623 C5          17.4625    -2.6257    22.9312 C5            1 RES     
     624 C5          17.4672    -1.1884    22.3565 C5            1 RES     
     625 C5          18.7845    -0.4142    22.4817 C5            1 RES     
     626 C5          19.9721    -1.0561    21.7728 C5            1 RES     
     627 C5          10.6343    -1.7172    21.4856 C5            1 RES     
     628 C0           9.2720    -0.8471    22.5896 C0            1 RES     
     629 C5           9.7749    -1.2181    24.0082 C5            1 RES     
     630 C5          10.3230    -2.7133    24.2067 C5            1 RES     
     631 C5           9.2115    -3.7348    24.5026 C5            1 RES     
     632 C5           7.9915    -3.7577    23.5532 C5            1 RES     
     633 C5           8.3079    -3.9072    22.0491 C5            1 RES     
     634 C5           7.1106    -4.2675    21.1793 C5            1 RES     
     635 C5           5.9472    -3.2912    21.3569 C5            1 RES     
     636 C5           4.6936    -3.8222    20.6694 C5            1 RES     
     637 C5           3.4890    -3.0109    21.1270 C5            1 RES     
     638 C5           2.1772    -3.5958    20.6558 C5            1 RES     
     639 C5          11.4868    -2.7568    25.2548 C5            1 RES     
     640 C5          12.5036    -3.9594    25.3371 C5            1 RES     
     641 C5          12.1331    -5.3387    25.9470 C5            1 RES     
     642 C5          11.5437    -5.2123    27.3577 C5            1 RES     
     643 C5          11.4575    -6.5548    28.1184 C5            1 RES     
     644 C5          10.5366    -6.4555    29.3546 C5            1 RES     
     645 C5          10.9107    -5.3783    30.3942 C5            1 RES     
     646 C5          12.2279    -5.6214    31.1543 C5            1 RES     
     647 C5          12.2617    -6.9103    31.9994 C5            1 RES     
     648 C5          11.1766    -6.9592    33.0787 C5            1 RES     
     649 H6          17.0340   -16.4339    19.1340 H6            1 RES     
     650 H6          18.2502   -16.2534    20.4526 H6            1 RES     
     651 H6          16.6984   -17.0998    20.7551 H6            1 RES     
     652 H6          15.4083   -15.0213    20.3957 H6            1 RES     
     653 H6          16.5887   -14.7929    21.7455 H6            1 RES     
     654 H6          18.1251   -13.5244    20.1727 H6            1 RES     
     655 H6          17.0209   -13.9289    18.8356 H6            1 RES     
     656 H6          15.1892   -12.5144    19.7613 H6            1 RES     
     657 H6          16.6528   -11.6089    19.2340 H6            1 RES     
     658 H6          17.3015   -11.1393    21.5864 H6            1 RES     
     659 H6          15.9696   -12.1630    22.1353 H6            1 RES     
     660 H6          15.3582    -9.9558    22.7122 H6            1 RES     
     661 H6          14.2070   -10.4914    21.4541 H6            1 RES     
     662 H6          16.4278    -8.3951    21.2220 H6            1 RES     
     663 H6          15.3222    -8.6755    19.8845 H6            1 RES     
     664 H6          15.3191    -6.3781    21.1392 H6            1 RES     
     665 H6          14.6813    -7.1397    22.5951 H6            1 RES     
     666 H6          13.0616    -6.3700    19.9981 H6            1 RES     
     667 H6          12.4168    -7.2067    21.4242 H6            1 RES     
     668 H6          12.0706    -5.0305    22.6813 H6            1 RES     
     669 H6          11.0840    -5.3266    21.2720 H6            1 RES     
     670 H6          11.5151    -3.3548    20.1672 H6            1 RES     
     671 H6          13.5812    -1.9776    20.2329 H6            1 RES     
     672 H6          13.5915    -3.6963    19.8792 H6            1 RES     
     673 H6          14.4970    -4.2743    22.2125 H6            1 RES     
     674 H6          14.7518    -2.5113    22.3902 H6            1 RES     
     675 H6          16.2608    -2.7205    20.2310 H6            1 RES     
     676 H6          16.0294    -4.4517    20.2666 H6            1 RES     
     677 H6          18.2452    -3.7771    21.2528 H6            1 RES     
     678 H6          17.2529    -4.7063    22.4060 H6            1 RES     
     679 H6          16.5869    -2.7356    23.6007 H6            1 RES     
     680 H6          18.3406    -2.7956    23.5963 H6            1 RES     
     681 H6          17.1324    -1.1559    21.3065 H6            1 RES     
     682 H6          16.7165    -0.6054    22.9299 H6            1 RES     
     683 H6          19.0324    -0.2811    23.5556 H6            1 RES     
     684 H6          18.6144     0.5918    22.0375 H6            1 RES     
     685 H6          19.7595    -1.2030    20.6938 H6            1 RES     
     686 H6          20.8499    -0.3808    21.8739 H6            1 RES     
     687 H6          20.2280    -2.0286    22.2411 H6            1 RES     
     688 H6          10.0653    -1.7779    20.5298 H6            1 RES     
     689 H6          11.3012    -0.8645    21.2378 H6            1 RES     
     690 H6          10.6031    -0.4990    24.1574 H6            1 RES     
     691 H6           8.9835    -1.0035    24.7529 H6            1 RES     
     692 H6          10.8206    -3.0805    23.3286 H6            1 RES     
     693 H6           9.6659    -4.7413    24.4889 H6            1 RES     
     694 H6           8.8245    -3.5459    25.5218 H6            1 RES     
     695 H6           7.3704    -4.6201    23.8733 H6            1 RES     
     696 H6           7.4087    -2.8268    23.7154 H6            1 RES     
     697 H6           8.6336    -2.9632    21.6587 H6            1 RES     
     698 H6           9.0891    -4.6678    21.8908 H6            1 RES     
     699 H6           7.4206    -4.2819    20.1085 H6            1 RES     
     700 H6           6.7941    -5.2881    21.4716 H6            1 RES     
     701 H6           5.7099    -3.2323    22.4358 H6            1 RES     
     702 H6           6.2105    -2.2704    20.9963 H6            1 RES     
     703 H6           4.8048    -3.7926    19.5629 H6            1 RES     
     704 H6           4.5383    -4.8718    20.9956 H6            1 RES     
     705 H6           3.5843    -1.9988    20.7114 H6            1 RES     
     706 H6           3.4622    -2.9853    22.2425 H6            1 RES     
     707 H6           2.1333    -3.5735    19.5491 H6            1 RES     
     708 H6           1.3480    -2.9858    21.0741 H6            1 RES     
     709 H6           2.0775    -4.6375    21.0260 H6            1 RES     
     710 H6          11.1029    -2.5037    26.2592 H6            1 RES     
     711 H6          12.1612    -1.9302    24.9354 H6            1 RES     
     712 H6          12.9843    -4.1258    24.3545 H6            1 RES     
     713 H6          13.3298    -3.5914    25.9836 H6            1 RES     
     714 H6          11.4468    -5.9204    25.2968 H6            1 RES     
     715 H6          13.0819    -5.9248    26.0115 H6            1 RES     
     716 H6          10.5297    -4.7795    27.2380 H6            1 RES     
     717 H6          12.1736    -4.5260    27.9624 H6            1 RES     
     718 H6          12.4771    -6.9002    28.4071 H6            1 RES     
     719 H6          11.0169    -7.3334    27.4583 H6            1 RES     
     720 H6          10.4612    -7.4472    29.8485 H6            1 RES     
     721 H6           9.5207    -6.2079    28.9782 H6            1 RES     
     722 H6          10.0845    -5.3025    31.1302 H6            1 RES     
     723 H6          10.9617    -4.3886    29.8955 H6            1 RES     
     724 H6          13.0721    -5.6409    30.4335 H6            1 RES     
     725 H6          12.3911    -4.7577    31.8367 H6            1 RES     
     726 H6          12.1725    -7.8029    31.3469 H6            1 RES     
     727 H6          13.2501    -6.9607    32.5059 H6            1 RES     
     728 H6          11.2614    -6.0829    33.7563 H6            1 RES     
     729 H6          10.1631    -6.9794    32.6282 H6            1 RES     
     730 H6          11.2944    -7.8849    33.6804 H6            1 RES     
     731 C0          -2.7506     9.1849    24.7230 C0            1 RES     
     732 C0          -3.0626     7.3619    24.7467 C0            1 RES     
     733 C0          -2.8803     6.8938    26.0418 C0            1 RES     
     734 S1          -2.8120     5.1868    26.2239 S1            1 RES     
     735 C0          -2.9930     4.6374    24.6681 C0            1 RES     
     736 C0          -3.1590     5.9937    23.9247 C0            1 RES     
     737 C0          -2.2042     7.8719    26.8950 C0            1 RES     
     738 C0          -1.6749     8.7170    25.7477 C0            1 RES     
     739 C0          -0.4069     8.3527    25.4139 C0            1 RES     
     740 C0           0.1971     7.4342    26.2691 C0            1 RES     
     741 S1          -0.7884     6.9990    27.6762 S1            1 RES     
     742 H2          -3.2012     5.9476    22.8432 H2            1 RES     
     743 H2           0.0436     8.5747    24.4604 H2            1 RES     
     744 N3          -2.1182     0.8831    25.7138 N3            1 RES     
     745 C0          -2.2819     2.2129    25.6417 C0            1 RES     
     746 C0          -2.8604     2.9556    24.5078 C0            1 RES     
     747 C0          -3.2177     1.9792    23.4575 C0            1 RES     
     748 N3          -3.7758     2.2919    22.2451 N3            1 RES     
     749 S1          -3.9827     0.8106    21.5114 S1            1 RES     
     750 N3          -3.3834    -0.2652    22.6130 N3            1 RES     
     751 C0          -3.0077     0.5383    23.6171 C0            1 RES     
     752 C0          -2.4523    -0.0136    24.7453 C0            1 RES     
     753 H4          -1.9331     2.7257    26.5104 H4            1 RES     
     754 C5          -6.2120    27.0731    31.3747 C5            1 RES     
     755 C5          -6.1630    25.6109    30.8473 C5            1 RES     
     756 C5          -5.4992    25.4692    29.4383 C5            1 RES     
     757 C5          -5.1061    24.0007    28.9211 C5            1 RES     
     758 C5          -6.2141    22.9736    28.4275 C5            1 RES     
     759 C5          -5.8952    21.3678    28.1169 C5            1 RES     
     760 C5          -5.1312    20.7170    26.8030 C5            1 RES     
     761 C5          -5.0905    19.0535    26.2452 C5            1 RES     
     762 C5          -4.0962    17.7104    26.5877 C5            1 RES     
     763 C5          -3.9742    15.9543    26.2063 C5            1 RES     
     764 C5          -3.2992    14.8839    24.9521 C5            1 RES     
     765 C5          -3.3562    15.9577    23.7203 C5            1 RES     
     766 C5          -4.7206    16.6872    23.3262 C5            1 RES     
     767 C5          -4.5728    18.0486    22.5181 C5            1 RES     
     768 C5          -5.9123    18.6756    21.9713 C5            1 RES     
     769 C5          -6.7836    17.6890    21.1635 C5            1 RES     
     770 C5          -6.0401    16.9943    19.9969 C5            1 RES     
     771 C5          -6.5081    17.3598    18.5835 C5            1 RES     
     772 C5          -6.3721    18.8363    18.2278 C5            1 RES     
     773 C5          -2.8872    12.9762    24.6489 C5            1 RES     
     774 C0          -3.2916    11.0917    24.9907 C0            1 RES     
     775 C5          -4.8348    11.1512    25.1259 C5            1 RES     
     776 C5          -5.4361    12.3979    25.9380 C5            1 RES     
     777 C5          -5.4669    12.1753    27.4599 C5            1 RES     
     778 C5          -4.1606    11.7029    28.1390 C5            1 RES     
     779 C5          -2.9076    12.5636    27.8668 C5            1 RES     
     780 C5          -1.7334    12.2908    28.7978 C5            1 RES     
     781 C5          -1.3379    10.8139    28.8187 C5            1 RES     
     782 C5          -0.3374    10.5438    29.9377 C5            1 RES     
     783 C5          -0.2102     9.0406    30.1446 C5            1 RES     
     784 C5           0.6033     8.6857    31.3681 C5            1 RES     
     785 C5          -6.8233    12.8377    25.3574 C5            1 RES     
     786 C5          -7.4403    14.2623    25.6339 C5            1 RES     
     787 C5          -8.0776    14.6575    26.9939 C5            1 RES     
     788 C5          -9.1509    13.6590    27.4462 C5            1 RES     
     789 C5         -10.0228    14.1701    28.6153 C5            1 RES     
     790 C5         -10.8212    13.0259    29.2782 C5            1 RES     
     791 C5         -11.7525    12.2210    28.3476 C5            1 RES     
     792 C5         -12.9583    12.9970    27.7857 C5            1 RES     
     793 C5         -13.9426    13.5255    28.8479 C5            1 RES     
     794 C5         -14.5602    12.4200    29.7090 C5            1 RES     
     795 H6          -5.1913    27.5078    31.4749 H6            1 RES     
     796 H6          -6.8132    27.7429    30.7236 H6            1 RES     
     797 H6          -6.6672    27.1064    32.3936 H6            1 RES     
     798 H6          -5.5665    25.0428    31.5913 H6            1 RES     
     799 H6          -7.1974    25.2119    30.8301 H6            1 RES     
     800 H6          -6.1026    26.0357    28.6933 H6            1 RES     
     801 H6          -4.5369    26.0253    29.5414 H6            1 RES     
     802 H6          -4.5286    23.5412    29.7465 H6            1 RES     
     803 H6          -4.4270    24.1624    28.0601 H6            1 RES     
     804 H6          -6.7578    23.4490    27.5772 H6            1 RES     
     805 H6          -6.9439    22.9847    29.2722 H6            1 RES     
     806 H6          -6.9291    20.9615    28.0537 H6            1 RES     
     807 H6          -5.4392    20.9730    29.0411 H6            1 RES     
     808 H6          -5.7009    21.2514    26.0023 H6            1 RES     
     809 H6          -4.1159    21.1618    26.7568 H6            1 RES     
     810 H6          -4.9291    19.2496    25.1649 H6            1 RES     
     811 H6          -6.1596    18.7625    26.3289 H6            1 RES     
     812 H6          -3.0726    18.1186    26.4584 H6            1 RES     
     813 H6          -4.2844    17.6851    27.6803 H6            1 RES     
     814 H6          -4.9961    15.6140    26.3997 H6            1 RES     
     815 H6          -3.3894    15.6419    27.0815 H6            1 RES     
     816 H6          -2.2285    15.0948    25.1716 H6            1 RES     
     817 H6          -2.8176    15.6130    22.8148 H6            1 RES     
     818 H6          -2.7518    16.8351    24.0724 H6            1 RES     
     819 H6          -5.3128    16.9662    24.2201 H6            1 RES     
     820 H6          -5.3039    15.9616    22.7385 H6            1 RES     
     821 H6          -3.8792    17.9146    21.6713 H6            1 RES     
     822 H6          -4.0885    18.8372    23.1399 H6            1 RES     
     823 H6          -5.6851    19.5650    21.3349 H6            1 RES     
     824 H6          -6.5354    19.0521    22.8154 H6            1 RES     
     825 H6          -7.1065    16.9151    21.8872 H6            1 RES     
     826 H6          -7.7346    18.1533    20.8143 H6            1 RES     
     827 H6          -4.9474    17.1288    20.0572 H6            1 RES     
     828 H6          -6.2153    15.9032    20.1022 H6            1 RES     
     829 H6          -7.5672    17.0525    18.4556 H6            1 RES     
     830 H6          -5.8874    16.7704    17.8724 H6            1 RES     
     831 H6          -5.3228    19.1782    18.3431 H6            1 RES     
     832 H6          -6.6763    18.9727    17.1669 H6            1 RES     
     833 H6          -7.0404    19.4543    18.8617 H6            1 RES     
     834 H6          -1.8122    12.9750    24.9409 H6            1 RES     
     835 H6          -2.7682    12.9839    23.5448 H6            1 RES     
     836 H6          -5.1593    11.2084    24.0692 H6            1 RES     
     837 H6          -5.2086    10.2024    25.5583 H6            1 RES     
     838 H6          -4.8577    13.2910    25.7926 H6            1 RES     
     839 H6          -5.7661    13.1267    27.9341 H6            1 RES     
     840 H6          -6.2415    11.4188    27.6876 H6            1 RES     
     841 H6          -4.3642    11.7062    29.2300 H6            1 RES     
     842 H6          -3.9641    10.6572    27.8223 H6            1 RES     
     843 H6          -2.5221    12.3326    26.8934 H6            1 RES     
     844 H6          -3.1529    13.6360    27.9279 H6            1 RES     
     845 H6          -0.8577    12.9033    28.4800 H6            1 RES     
     846 H6          -2.0432    12.6124    29.8116 H6            1 RES     
     847 H6          -2.2403    10.2200    29.0572 H6            1 RES     
     848 H6          -0.9462    10.4808    27.8302 H6            1 RES     
     849 H6           0.6484    11.0057    29.7089 H6            1 RES     
     850 H6          -0.7400    10.9815    30.8750 H6            1 RES     
     851 H6           0.2906     8.6183    29.2631 H6            1 RES     
     852 H6          -1.2261     8.5983    30.2786 H6            1 RES     
     853 H6           1.6434     9.0462    31.2437 H6            1 RES     
     854 H6           0.6032     7.5806    31.4840 H6            1 RES     
     855 H6           0.1415     9.1403    32.2693 H6            1 RES     
     856 H6          -7.5758    12.0482    25.5325 H6            1 RES     
     857 H6          -6.6448    12.8932    24.2596 H6            1 RES     
     858 H6          -6.7295    15.0552    25.3337 H6            1 RES     
     859 H6          -8.2755    14.3582    24.9064 H6            1 RES     
     860 H6          -7.3207    14.7936    27.7943 H6            1 RES     
     861 H6          -8.5619    15.6527    26.8427 H6            1 RES     
     862 H6          -8.6154    12.7362    27.7488 H6            1 RES     
     863 H6          -9.8301    13.4349    26.5965 H6            1 RES     
     864 H6         -10.7031    14.9797    28.2633 H6            1 RES     
     865 H6          -9.3734    14.6022    29.4077 H6            1 RES     
     866 H6         -11.3984    13.4204    30.1410 H6            1 RES     
     867 H6         -10.0759    12.3127    29.6915 H6            1 RES     
     868 H6         -12.1266    11.3393    28.9067 H6            1 RES     
     869 H6         -11.1625    11.8129    27.5013 H6            1 RES     
     870 H6         -12.5961    13.8500    27.1741 H6            1 RES     
     871 H6         -13.5168    12.3135    27.1082 H6            1 RES     
     872 H6         -13.4423    14.2670    29.5039 H6            1 RES     
     873 H6         -14.7688    14.0477    28.3181 H6            1 RES     
     874 H6         -15.0846    11.6767    29.0713 H6            1 RES     
     875 H6         -13.7874    11.9047    30.3153 H6            1 RES     
     876 H6         -15.2956    12.8654    30.4117 H6            1 RES     
     877 C0           0.5120    -4.2439    25.2863 C0            1 RES     
     878 C0           0.3285    -3.3141    26.8747 C0            1 RES     
     879 C0          -1.0012    -3.3673    27.2730 C0            1 RES     
     880 S1          -1.4486    -2.3088    28.5502 S1            1 RES     
     881 C0          -0.0309    -1.5166    28.8931 C0            1 RES     
     882 C0           0.9167    -2.2151    27.8763 C0            1 RES     
     883 C0          -1.8825    -3.8350    26.2024 C0            1 RES     
     884 C0          -0.8858    -3.5876    25.0817 C0            1 RES     
     885 C0          -1.0829    -2.3687    24.5095 C0            1 RES     
     886 C0          -2.2239    -1.6883    24.9278 C0            1 RES     
     887 S1          -3.2370    -2.6014    26.0593 S1            1 RES     
     888 H2           1.9228    -1.8194    27.8059 H2            1 RES     
     889 H2          -0.3299    -1.8524    23.9369 H2            1 RES     
     890 N3          -1.8677     1.0708    31.3189 N3            1 RES     
     891 C0          -1.5443     0.1452    30.4029 C0            1 RES     
     892 C0          -0.1814    -0.3049    30.0681 C0            1 RES     
     893 C0           0.7688     0.4518    30.9101 C0            1 RES     
     894 N3           2.1325     0.3160    30.8797 N3            1 RES     
     895 S1           2.6616     1.3786    32.0485 S1            1 RES     
     896 N3           1.2714     2.0651    32.6195 N3            1 RES     
     897 C0           0.3315     1.4472    31.8916 C0            1 RES     
     898 C0          -0.9894     1.7631    32.0954 C0            1 RES     
     899 H4          -2.3931    -0.2580    29.8968 H4            1 RES     
     900 C5          -1.7219   -20.3427    14.7009 C5            1 RES     
     901 C5          -1.4713   -19.1927    15.7173 C5            1 RES     
     902 C5          -0.4283   -18.1343    15.2294 C5            1 RES     
     903 C5          -0.3102   -16.7488    16.0325 C5            1 RES     
     904 C5           0.3855   -16.6768    17.4597 C5            1 RES     
     905 C5           0.3187   -15.3308    18.4399 C5            1 RES     
     906 C5           1.1623   -13.9170    18.2869 C5            1 RES     
     907 C5           1.4139   -12.6344    19.4581 C5            1 RES     
     908 C5           0.5438   -11.2314    19.8877 C5            1 RES     
     909 C5           0.5899    -9.8992    21.0990 C5            1 RES     
     910 C5           1.3473    -8.3030    21.3292 C5            1 RES     
     911 C5           2.6646    -8.5700    20.3981 C5            1 RES     
     912 C5           3.6221    -9.8194    20.6649 C5            1 RES     
     913 C5           4.5187   -10.2830    19.4363 C5            1 RES     
     914 C5           5.5930   -11.3947    19.7464 C5            1 RES     
     915 C5           6.5005   -11.0717    20.9535 C5            1 RES     
     916 C5           7.2089    -9.6981    20.8652 C5            1 RES     
     917 C5           8.7340    -9.7321    20.7125 C5            1 RES     
     918 C5           9.2344   -10.4419    19.4593 C5            1 RES     
     919 C5           1.1955    -6.7053    22.4805 C5            1 RES     
     920 C0           0.7422    -5.9162    24.2136 C0            1 RES     
     921 C5           1.1748    -7.0580    25.1687 C5            1 RES     
     922 C5           0.8255    -8.5536    24.7032 C5            1 RES     
     923 C5          -0.6011    -8.9903    25.0784 C5            1 RES     
     924 C5          -1.7625    -8.0474    24.6880 C5            1 RES     
     925 C5          -1.8281    -7.6351    23.2012 C5            1 RES     
     926 C5          -3.1451    -7.0005    22.7740 C5            1 RES     
     927 C5          -3.5257    -5.8048    23.6478 C5            1 RES     
     928 C5          -4.9542    -5.3594    23.3523 C5            1 RES     
     929 C5          -5.4149    -4.3984    24.4398 C5            1 RES     
     930 C5          -6.8860    -4.0655    24.3408 C5            1 RES     
     931 C5           1.9199    -9.5673    25.1821 C5            1 RES     
     932 C5           2.0970   -10.9902    24.5257 C5            1 RES     
     933 C5           1.1277   -12.1726    24.7978 C5            1 RES     
     934 C5           0.9426   -12.4408    26.2969 C5            1 RES     
     935 C5           0.2501   -13.7871    26.6071 C5            1 RES     
     936 C5          -0.2487   -13.8524    28.0676 C5            1 RES     
     937 C5           0.8206   -13.6402    29.1597 C5            1 RES     
     938 C5           1.8835   -14.7493    29.2694 C5            1 RES     
     939 C5           1.3322   -16.1443    29.6250 C5            1 RES     
     940 C5           0.5920   -16.1828    30.9649 C5            1 RES     
     941 H6          -2.1122   -19.9563    13.7317 H6            1 RES     
     942 H6          -0.8074   -20.9388    14.4950 H6            1 RES     
     943 H6          -2.4954   -21.0475    15.0905 H6            1 RES     
     944 H6          -2.4546   -18.6981    15.8602 H6            1 RES     
     945 H6          -1.1474   -19.6414    16.6782 H6            1 RES     
     946 H6           0.5582   -18.6322    15.0921 H6            1 RES     
     947 H6          -0.7823   -17.8655    14.2055 H6            1 RES     
     948 H6          -1.3457   -16.3655    16.1149 H6            1 RES     
     949 H6           0.2670   -16.0719    15.3712 H6            1 RES     
     950 H6           1.4343   -17.0379    17.3407 H6            1 RES     
     951 H6          -0.1329   -17.4915    18.0199 H6            1 RES     
     952 H6           0.6837   -15.7576    19.4003 H6            1 RES     
     953 H6          -0.7551   -15.1075    18.5625 H6            1 RES     
     954 H6           2.1834   -14.3513    18.1457 H6            1 RES     
     955 H6           0.9105   -13.4872    17.2957 H6            1 RES     
     956 H6           2.3826   -12.2529    19.0738 H6            1 RES     
     957 H6           1.6731   -13.2119    20.3712 H6            1 RES     
     958 H6           0.3603   -10.7424    18.9088 H6            1 RES     
     959 H6          -0.4013   -11.7436    20.1606 H6            1 RES     
     960 H6           0.7238   -10.4534    22.0330 H6            1 RES     
     961 H6          -0.4722    -9.6220    21.0707 H6            1 RES     
     962 H6           0.7957    -7.7846    20.5131 H6            1 RES     
     963 H6           3.2571    -7.6530    20.2061 H6            1 RES     
     964 H6           2.2561    -8.8399    19.3884 H6            1 RES     
     965 H6           3.0495   -10.7273    20.9397 H6            1 RES     
     966 H6           4.2633    -9.5448    21.5168 H6            1 RES     
     967 H6           5.0335    -9.4146    18.9923 H6            1 RES     
     968 H6           3.8906   -10.6775    18.6038 H6            1 RES     
     969 H6           6.2324   -11.5687    18.8472 H6            1 RES     
     970 H6           5.0918   -12.3671    19.9606 H6            1 RES     
     971 H6           5.8319   -11.0681    21.8366 H6            1 RES     
     972 H6           7.2302   -11.8874    21.1640 H6            1 RES     
     973 H6           6.7850    -9.0582    20.0736 H6            1 RES     
     974 H6           7.0109    -9.1670    21.8197 H6            1 RES     
     975 H6           9.1824   -10.2152    21.6058 H6            1 RES     
     976 H6           9.0814    -8.6756    20.6781 H6            1 RES     
     977 H6           8.8063    -9.9829    18.5443 H6            1 RES     
     978 H6          10.3419   -10.3481    19.4197 H6            1 RES     
     979 H6           8.9794   -11.5209    19.4928 H6            1 RES     
     980 H6           0.5438    -6.0765    21.8318 H6            1 RES     
     981 H6           2.1731    -6.2252    22.2637 H6            1 RES     
     982 H6           2.2737    -6.9296    25.2028 H6            1 RES     
     983 H6           0.7668    -6.8722    26.1817 H6            1 RES     
     984 H6           0.8876    -8.6692    23.6374 H6            1 RES     
     985 H6          -0.7900    -9.9693    24.6035 H6            1 RES     
     986 H6          -0.6490    -9.1252    26.1755 H6            1 RES     
     987 H6          -2.6964    -8.5875    24.9487 H6            1 RES     
     988 H6          -1.6964    -7.1366    25.3194 H6            1 RES     
     989 H6          -1.1015    -6.8698    23.0120 H6            1 RES     
     990 H6          -1.6370    -8.5026    22.5493 H6            1 RES     
     991 H6          -3.0716    -6.6727    21.7109 H6            1 RES     
     992 H6          -3.9225    -7.7861    22.8509 H6            1 RES     
     993 H6          -3.5139    -6.1336    24.7040 H6            1 RES     
     994 H6          -2.8027    -4.9652    23.5304 H6            1 RES     
     995 H6          -5.0244    -4.8937    22.3444 H6            1 RES     
     996 H6          -5.6104    -6.2538    23.3907 H6            1 RES     
     997 H6          -4.8427    -3.4671    24.3339 H6            1 RES     
     998 H6          -5.2436    -4.8624    25.4404 H6            1 RES     
     999 H6          -7.0870    -3.5368    23.3883 H6            1 RES     
    1000 H6          -7.1580    -3.4098    25.1956 H6            1 RES     
    1001 H6          -7.4855    -4.9978    24.3998 H6            1 RES     
    1002 H6           1.9078    -9.6469    26.2838 H6            1 RES     
    1003 H6           2.8777    -9.0790    24.8917 H6            1 RES     
    1004 H6           2.2398   -10.8955    23.4326 H6            1 RES     
    1005 H6           3.0794   -11.3556    24.8962 H6            1 RES     
    1006 H6           0.1405   -12.0339    24.3097 H6            1 RES     
    1007 H6           1.5881   -13.0771    24.3311 H6            1 RES     
    1008 H6           0.3351   -11.6025    26.6944 H6            1 RES     
    1009 H6           1.9345   -12.4529    26.7965 H6            1 RES     
    1010 H6           0.9377   -14.6349    26.3820 H6            1 RES     
    1011 H6          -0.6472   -13.9059    25.9615 H6            1 RES     
    1012 H6          -0.7808   -14.8116    28.2411 H6            1 RES     
    1013 H6          -1.0016   -13.0435    28.1854 H6            1 RES     
    1014 H6           0.3058   -13.5434    30.1372 H6            1 RES     
    1015 H6           1.3308   -12.6697    28.9904 H6            1 RES     
    1016 H6           2.4466   -14.8169    28.3149 H6            1 RES     
    1017 H6           2.6050   -14.4515    30.0625 H6            1 RES     
    1018 H6           0.6600   -16.5105    28.8223 H6            1 RES     
    1019 H6           2.1928   -16.8452    29.6897 H6            1 RES     
    1020 H6           1.2557   -15.8385    31.7866 H6            1 RES     
    1021 H6          -0.3191   -15.5507    30.9384 H6            1 RES     
    1022 H6           0.2716   -17.2238    31.1811 H6            1 RES     
    1023 C0          -3.1743     6.2640    33.4894 C0            1 RES     
    1024 C0          -4.4357     4.9704    33.0935 C0            1 RES     
    1025 C0          -4.3385     3.9495    34.0305 C0            1 RES     
    1026 S1          -5.1998     2.5080    33.6669 S1            1 RES     
    1027 C0          -5.9016     2.8513    32.2024 C0            1 RES     
    1028 C0          -5.4046     4.3120    32.0052 C0            1 RES     
    1029 C0          -3.1074     4.0340    34.8171 C0            1 RES     
    1030 C0          -2.3906     4.9687    33.8564 C0            1 RES     
    1031 C0          -1.6105     4.2732    32.9849 C0            1 RES     
    1032 C0          -1.4892     2.9105    33.2459 C0            1 RES     
    1033 S1          -2.3096     2.3812    34.7248 S1            1 RES     
    1034 H2          -5.6381     4.7755    31.0542 H2            1 RES     
    1035 H2          -1.2725     4.6710    32.0420 H2            1 RES     
    1036 N3          -7.1004    -0.9258    31.7023 N3            1 RES     
    1037 C0          -6.5086     0.2149    32.0881 C0            1 RES     
    1038 C0          -6.7512     1.5532    31.5205 C0            1 RES     
    1039 C0          -7.7527     1.4169    30.4422 C0            1 RES     
    1040 N3          -8.2296     2.4459    29.6724 N3            1 RES     
    1041 S1          -9.3374     1.7090    28.6698 S1            1 RES     
    1042 N3          -9.2675     0.1162    29.1038 N3            1 RES     
    1043 C0          -8.3543     0.1303    30.0839 C0            1 RES     
    1044 C0          -8.0256    -1.0466    30.7108 C0            1 RES     
    1045 H4          -5.8001     0.0745    32.8740 H4            1 RES     
    1046 C5           4.9808    18.7777    45.8635 C5            1 RES     
    1047 C5           4.1257    17.8508    44.9533 C5            1 RES     
    1048 C5           4.3634    18.0735    43.4236 C5            1 RES     
    1049 C5           3.7875    16.9853    42.3928 C5            1 RES     
    1050 C5           2.2341    16.8935    42.0691 C5            1 RES     
    1051 C5           1.5546    15.6392    41.2078 C5            1 RES     
    1052 C5           1.6073    15.3785    39.5759 C5            1 RES     
    1053 C5           0.6289    14.3120    38.5832 C5            1 RES     
    1054 C5           0.7514    12.6739    38.1234 C5            1 RES     
    1055 C5          -0.1835    11.4209    37.2289 C5            1 RES     
    1056 C5          -0.4266    10.8460    35.5601 C5            1 RES     
    1057 C5          -0.0755    12.2555    34.8093 C5            1 RES     
    1058 C5          -0.8487    13.6018    35.1819 C5            1 RES     
    1059 C5          -0.1030    14.9567    34.8125 C5            1 RES     
    1060 C5          -0.9371    16.2800    35.0112 C5            1 RES     
    1061 C5          -2.3252    16.2549    34.3345 C5            1 RES     
    1062 C5          -2.2901    15.9036    32.8274 C5            1 RES     
    1063 C5          -2.6964    17.0234    31.8622 C5            1 RES     
    1064 C5          -1.8239    18.2721    31.9297 C5            1 RES     
    1065 C5          -1.1962     9.3120    34.5825 C5            1 RES     
    1066 C0          -2.5162     7.8700    34.4834 C0            1 RES     
    1067 C5          -3.7219     8.5379    35.1929 C5            1 RES     
    1068 C5          -3.3917     9.4141    36.4962 C5            1 RES     
    1069 C5          -3.2962     8.5778    37.7839 C5            1 RES     
    1070 C5          -2.3823     7.3309    37.7593 C5            1 RES     
    1071 C5          -0.9255     7.5692    37.3056 C5            1 RES     
    1072 C5           0.0316     6.4242    37.6103 C5            1 RES     
    1073 C5          -0.4607     5.0893    37.0504 C5            1 RES     
    1074 C5           0.3862     3.9395    37.5861 C5            1 RES     
    1075 C5          -0.3099     2.6198    37.2821 C5            1 RES     
    1076 C5           0.3540     1.4402    37.9546 C5            1 RES     
    1077 C5          -4.3741    10.6276    36.6281 C5            1 RES     
    1078 C5          -4.0440    11.8875    37.5172 C5            1 RES     
    1079 C5          -4.1273    11.8724    39.0679 C5            1 RES     
    1080 C5          -5.4848    11.3673    39.5733 C5            1 RES     
    1081 C5          -5.7261    11.6311    41.0768 C5            1 RES     
    1082 C5          -6.9061    10.7974    41.6232 C5            1 RES     
    1083 C5          -8.2621    10.9950    40.9137 C5            1 RES     
    1084 C5          -8.9069    12.3820    41.0930 C5            1 RES     
    1085 C5          -9.2476    12.7565    42.5491 C5            1 RES     
    1086 C5         -10.2266    11.7850    43.2144 C5            1 RES     
    1087 H6           6.0715    18.6211    45.6997 H6            1 RES     
    1088 H6           4.7567    19.8546    45.7085 H6            1 RES     
    1089 H6           4.7908    18.5518    46.9403 H6            1 RES     
    1090 H6           4.4173    16.8140    45.2215 H6            1 RES     
    1091 H6           3.0570    18.0043    45.2057 H6            1 RES     
    1092 H6           4.0651    19.1125    43.1566 H6            1 RES     
    1093 H6           5.4741    18.0361    43.3195 H6            1 RES     
    1094 H6           4.1368    16.0052    42.7715 H6            1 RES     
    1095 H6           4.2937    17.1940    41.4289 H6            1 RES     
    1096 H6           1.9172    17.8821    41.6605 H6            1 RES     
    1097 H6           1.7797    16.8491    43.0878 H6            1 RES     
    1098 H6           0.4749    15.8072    41.4173 H6            1 RES     
    1099 H6           1.8565    14.7193    41.7376 H6            1 RES     
    1100 H6           1.3097    16.4025    39.2380 H6            1 RES     
    1101 H6           2.6756    15.2973    39.2881 H6            1 RES     
    1102 H6           0.6962    14.8737    37.6284 H6            1 RES     
    1103 H6          -0.3921    14.5202    38.9689 H6            1 RES     
    1104 H6           1.7929    12.5974    37.7486 H6            1 RES     
    1105 H6           0.7589    12.2517    39.1489 H6            1 RES     
    1106 H6          -1.1757    11.5210    37.6793 H6            1 RES     
    1107 H6           0.2614    10.5302    37.6917 H6            1 RES     
    1108 H6           0.6000    10.4399    35.4175 H6            1 RES     
    1109 H6           0.0281    12.1514    33.7106 H6            1 RES     
    1110 H6           0.9609    12.5159    35.1516 H6            1 RES     
    1111 H6          -1.0344    13.6835    36.2711 H6            1 RES     
    1112 H6          -1.8216    13.5551    34.6685 H6            1 RES     
    1113 H6           0.2535    14.9223    33.7695 H6            1 RES     
    1114 H6           0.8294    15.0810    35.4111 H6            1 RES     
    1115 H6          -0.3607    17.1557    34.6258 H6            1 RES     
    1116 H6          -1.1019    16.4734    36.0965 H6            1 RES     
    1117 H6          -2.9018    15.4728    34.8662 H6            1 RES     
    1118 H6          -2.9005    17.1921    34.5156 H6            1 RES     
    1119 H6          -1.3135    15.4991    32.5140 H6            1 RES     
    1120 H6          -3.0211    15.0838    32.6664 H6            1 RES     
    1121 H6          -3.7522    17.3085    32.0531 H6            1 RES     
    1122 H6          -2.6302    16.6060    30.8328 H6            1 RES     
    1123 H6          -0.7590    18.0240    31.7415 H6            1 RES     
    1124 H6          -2.1670    18.9843    31.1474 H6            1 RES     
    1125 H6          -1.9255    18.7672    32.9171 H6            1 RES     
    1126 H6          -0.2720     8.7065    34.4403 H6            1 RES     
    1127 H6          -1.2717     9.7561    33.5675 H6            1 RES     
    1128 H6          -4.1247     9.1954    34.3988 H6            1 RES     
    1129 H6          -4.4837     7.7712    35.4356 H6            1 RES     
    1130 H6          -2.4476     9.9193    36.4142 H6            1 RES     
    1131 H6          -2.9372     9.2407    38.5909 H6            1 RES     
    1132 H6          -4.3116     8.2291    38.0512 H6            1 RES     
    1133 H6          -2.3717     6.9385    38.7974 H6            1 RES     
    1134 H6          -2.8522     6.5698    37.1016 H6            1 RES     
    1135 H6          -0.8948     7.6515    36.2371 H6            1 RES     
    1136 H6          -0.5216     8.4862    37.7638 H6            1 RES     
    1137 H6           1.0353     6.6561    37.1841 H6            1 RES     
    1138 H6           0.1195     6.3611    38.7129 H6            1 RES     
    1139 H6          -1.4886     4.9189    37.4222 H6            1 RES     
    1140 H6          -0.4839     5.0960    35.9365 H6            1 RES     
    1141 H6           1.4107     3.9658    37.1534 H6            1 RES     
    1142 H6           0.4503     4.0419    38.6896 H6            1 RES     
    1143 H6          -0.2764     2.4613    36.1959 H6            1 RES     
    1144 H6          -1.3633     2.6642    37.6482 H6            1 RES     
    1145 H6           1.3834     1.3171    37.5641 H6            1 RES     
    1146 H6          -0.2400     0.5275    37.7339 H6            1 RES     
    1147 H6           0.3733     1.5979    39.0532 H6            1 RES     
    1148 H6          -5.3982    10.2668    36.8312 H6            1 RES     
    1149 H6          -4.3735    11.0799    35.6105 H6            1 RES     
    1150 H6          -3.0720    12.3249    37.2203 H6            1 RES     
    1151 H6          -4.7896    12.6544    37.2141 H6            1 RES     
    1152 H6          -3.3053    11.2885    39.5320 H6            1 RES     
    1153 H6          -3.9955    12.9292    39.4052 H6            1 RES     
    1154 H6          -5.5104    10.2771    39.3716 H6            1 RES     
    1155 H6          -6.3001    11.8703    39.0112 H6            1 RES     
    1156 H6          -5.8895    12.7190    41.2557 H6            1 RES     
    1157 H6          -4.8292    11.3288    41.6603 H6            1 RES     
    1158 H6          -7.0205    10.9762    42.7132 H6            1 RES     
    1159 H6          -6.6264     9.7287    41.5023 H6            1 RES     
    1160 H6          -8.9667    10.2245    41.2878 H6            1 RES     
    1161 H6          -8.1422    10.7925    39.8295 H6            1 RES     
    1162 H6          -8.2364    13.1586    40.6687 H6            1 RES     
    1163 H6          -9.8506    12.3971    40.5036 H6            1 RES     
    1164 H6          -8.3227    12.8219    43.1580 H6            1 RES     
    1165 H6          -9.7178    13.7639    42.5415 H6            1 RES     
    1166 H6         -11.1691    11.7207    42.6299 H6            1 RES     
    1167 H6          -9.7838    10.7726    43.3112 H6            1 RES     
    1168 H6         -10.4677    12.1446    44.2368 H6            1 RES     
    1169 C0          -7.8627    -5.8932    28.8508 C0            1 RES     
    1170 C0          -7.2424    -5.7935    30.5905 C0            1 RES     
    1171 C0          -8.2940    -5.4247    31.4198 C0            1 RES     
    1172 S1          -7.8679    -4.9698    33.0208 S1            1 RES     
    1173 C0          -6.2159    -5.1309    33.0280 C0            1 RES     
    1174 C0          -5.9922    -5.6419    31.5759 C0            1 RES     
    1175 C0          -9.4448    -4.9241    30.6669 C0            1 RES     
    1176 C0          -8.6733    -4.6735    29.3813 C0            1 RES     
    1177 C0          -8.2505    -3.3822    29.3064 C0            1 RES     
    1178 C0          -8.7381    -2.5338    30.2975 C0            1 RES     
    1179 S1          -9.8901    -3.3009    31.4041 S1            1 RES     
    1180 H2          -4.9625    -5.7466    31.2559 H2            1 RES     
    1181 H2          -7.4412    -3.0578    28.6729 H2            1 RES     
    1182 N3          -5.8929    -3.3813    36.6040 N3            1 RES     
    1183 C0          -6.2887    -3.8385    35.4062 C0            1 RES     
    1184 C0          -5.4788    -4.6423    34.4735 C0            1 RES     
    1185 C0          -4.1483    -4.8465    35.0838 C0            1 RES     
    1186 N3          -3.1147    -5.5411    34.5109 N3            1 RES     
    1187 S1          -1.9061    -5.4661    35.6550 S1            1 RES     
    1188 N3          -2.5694    -4.5709    36.8751 N3            1 RES     
    1189 C0          -3.7962    -4.3138    36.4021 C0            1 RES     
    1190 C0          -4.6673    -3.5748    37.1645 C0            1 RES     
    1191 H4          -7.2866    -3.5528    35.1576 H4            1 RES     
    1192 C5         -20.3082   -12.7486    15.6476 C5            1 RES     
    1193 C5         -19.3030   -12.4148    16.7863 C5            1 RES     
    1194 C5         -17.9428   -11.8337    16.2782 C5            1 RES     
    1195 C5         -16.9496   -11.1630    17.3470 C5            1 RES     
    1196 C5         -16.1126   -12.0485    18.3675 C5            1 RES     
    1197 C5         -15.2639   -11.4056    19.6494 C5            1 RES     
    1198 C5         -13.8158   -10.6083    19.6144 C5            1 RES     
    1199 C5         -12.7115   -10.2403    20.9279 C5            1 RES     
    1200 C5         -12.5756    -8.9536    22.0396 C5            1 RES     
    1201 C5         -11.6053    -8.4740    23.4792 C5            1 RES     
    1202 C5         -10.0650    -7.6668    23.8673 C5            1 RES     
    1203 C5          -9.2864    -8.0429    22.4795 C5            1 RES     
    1204 C5          -9.1542    -9.5581    21.9940 C5            1 RES     
    1205 C5          -8.8758    -9.7694    20.4428 C5            1 RES     
    1206 C5          -8.5650   -11.2481    19.9923 C5            1 RES     
    1207 C5          -7.4511   -11.9336    20.8136 C5            1 RES     
    1208 C5          -6.1254   -11.1367    20.8740 C5            1 RES     
    1209 C5          -4.9232   -11.7690    20.1632 C5            1 RES     
    1210 C5          -5.1088   -11.9862    18.6654 C5            1 RES     
    1211 C5          -9.1188    -6.8664    25.4051 C5            1 RES     
    1212 C0          -8.7737    -6.8214    27.3313 C0            1 RES     
    1213 C5          -8.9000    -8.3269    27.6789 C5            1 RES     
    1214 C5         -10.0890    -9.1313    26.9614 C5            1 RES     
    1215 C5         -11.4360    -9.0084    27.6942 C5            1 RES     
    1216 C5         -11.9245    -7.5870    28.0569 C5            1 RES     
    1217 C5         -11.9880    -6.5759    26.8913 C5            1 RES     
    1218 C5         -12.7804    -5.3098    27.1893 C5            1 RES     
    1219 C5         -12.2883    -4.5982    28.4501 C5            1 RES     
    1220 C5         -13.2555    -3.4888    28.8502 C5            1 RES     
    1221 C5         -12.9248    -3.0198    30.2606 C5            1 RES     
    1222 C5         -13.9576    -2.0666    30.8169 C5            1 RES     
    1223 C5          -9.6802   -10.6176    26.6808 C5            1 RES     
    1224 C5         -10.4295   -11.5130    25.6208 C5            1 RES     
    1225 C5         -11.8330   -12.1273    25.8752 C5            1 RES     
    1226 C5         -11.8924   -12.9209    27.1868 C5            1 RES     
    1227 C5         -13.1545   -13.8022    27.3239 C5            1 RES     
    1228 C5         -13.3638   -14.2818    28.7772 C5            1 RES     
    1229 C5         -12.1978   -15.0741    29.4046 C5            1 RES     
    1230 C5         -11.9268   -16.4567    28.7826 C5            1 RES     
    1231 C5         -13.0932   -17.4585    28.8932 C5            1 RES     
    1232 C5         -13.5043   -17.7571    30.3377 C5            1 RES     
    1233 H6         -20.5682   -11.8443    15.0513 H6            1 RES     
    1234 H6         -19.9247   -13.5255    14.9524 H6            1 RES     
    1235 H6         -21.2680   -13.1294    16.0723 H6            1 RES     
    1236 H6         -19.8091   -11.6585    17.4219 H6            1 RES     
    1237 H6         -19.1331   -13.3345    17.3818 H6            1 RES     
    1238 H6         -17.4351   -12.5964    15.6454 H6            1 RES     
    1239 H6         -18.2471   -11.0128    15.5858 H6            1 RES     
    1240 H6         -17.5697   -10.4435    17.9161 H6            1 RES     
    1241 H6         -16.2090   -10.5964    16.7476 H6            1 RES     
    1242 H6         -15.4753   -12.7402    17.7676 H6            1 RES     
    1243 H6         -16.8977   -12.7034    18.8157 H6            1 RES     
    1244 H6         -15.0483   -12.3263    20.2356 H6            1 RES     
    1245 H6         -15.9975   -10.8118    20.2215 H6            1 RES     
    1246 H6         -13.2452   -11.3351    18.9839 H6            1 RES     
    1247 H6         -13.9421    -9.7216    18.9599 H6            1 RES     
    1248 H6         -11.7705   -10.2001    20.3410 H6            1 RES     
    1249 H6         -12.6735   -11.2108    21.4677 H6            1 RES     
    1250 H6         -12.6114    -8.0563    21.3878 H6            1 RES     
    1251 H6         -13.5876    -9.0566    22.4814 H6            1 RES     
    1252 H6         -11.6533    -9.3802    24.0907 H6            1 RES     
    1253 H6         -12.3236    -7.7764    23.9297 H6            1 RES     
    1254 H6         -10.3590    -6.6565    23.5042 H6            1 RES     
    1255 H6          -8.3250    -7.5046    22.3581 H6            1 RES     
    1256 H6          -9.9316    -7.6241    21.6624 H6            1 RES     
    1257 H6         -10.0810   -10.1349    22.1835 H6            1 RES     
    1258 H6          -8.3417   -10.0059    22.5869 H6            1 RES     
    1259 H6          -8.0453    -9.1226    20.1140 H6            1 RES     
    1260 H6          -9.7410    -9.4294    19.8270 H6            1 RES     
    1261 H6          -8.2834   -11.2664    18.9116 H6            1 RES     
    1262 H6          -9.4790   -11.8798    20.0831 H6            1 RES     
    1263 H6          -7.8536   -12.0280    21.8412 H6            1 RES     
    1264 H6          -7.2736   -12.9852    20.4897 H6            1 RES     
    1265 H6          -6.2438   -10.0990    20.5207 H6            1 RES     
    1266 H6          -5.8396   -11.0596    21.9439 H6            1 RES     
    1267 H6          -4.6814   -12.7405    20.6428 H6            1 RES     
    1268 H6          -4.0592   -11.0837    20.3125 H6            1 RES     
    1269 H6          -5.3507   -11.0327    18.1522 H6            1 RES     
    1270 H6          -4.1587   -12.3846    18.2467 H6            1 RES     
    1271 H6          -5.9098   -12.7294    18.4744 H6            1 RES     
    1272 H6          -9.4065    -5.8002    25.2590 H6            1 RES     
    1273 H6          -8.0890    -6.8275    24.9912 H6            1 RES     
    1274 H6          -7.9259    -8.7273    27.3383 H6            1 RES     
    1275 H6          -8.9678    -8.4521    28.7774 H6            1 RES     
    1276 H6         -10.2733    -8.7751    25.9652 H6            1 RES     
    1277 H6         -12.2091    -9.4768    27.0598 H6            1 RES     
    1278 H6         -11.3739    -9.5799    28.6395 H6            1 RES     
    1279 H6         -12.9448    -7.7114    28.4757 H6            1 RES     
    1280 H6         -11.2644    -7.1870    28.8549 H6            1 RES     
    1281 H6         -11.0007    -6.2163    26.6784 H6            1 RES     
    1282 H6         -12.4173    -7.0466    25.9924 H6            1 RES     
    1283 H6         -12.7092    -4.6143    26.3209 H6            1 RES     
    1284 H6         -13.8384    -5.6129    27.3163 H6            1 RES     
    1285 H6         -12.2916    -5.3291    29.2805 H6            1 RES     
    1286 H6         -11.2513    -4.2110    28.3235 H6            1 RES     
    1287 H6         -13.2163    -2.6469    28.1241 H6            1 RES     
    1288 H6         -14.2811    -3.9131    28.8665 H6            1 RES     
    1289 H6         -11.9581    -2.4996    30.2269 H6            1 RES     
    1290 H6         -12.8816    -3.9017    30.9433 H6            1 RES     
    1291 H6         -13.9814    -1.1424    30.2065 H6            1 RES     
    1292 H6         -13.6792    -1.8153    31.8628 H6            1 RES     
    1293 H6         -14.9545    -2.5546    30.8190 H6            1 RES     
    1294 H6          -9.5576   -11.1639    27.6330 H6            1 RES     
    1295 H6          -8.6738   -10.5309    26.2119 H6            1 RES     
    1296 H6         -10.4357   -11.0164    24.6321 H6            1 RES     
    1297 H6          -9.7703   -12.3963    25.4758 H6            1 RES     
    1298 H6         -12.6406   -11.3662    25.8521 H6            1 RES     
    1299 H6         -12.0332   -12.8282    25.0286 H6            1 RES     
    1300 H6         -11.8601   -12.1759    28.0076 H6            1 RES     
    1301 H6         -11.0088   -13.5904    27.2551 H6            1 RES     
    1302 H6         -13.0989   -14.6665    26.6225 H6            1 RES     
    1303 H6         -14.0567   -13.2115    27.0534 H6            1 RES     
    1304 H6         -14.3023   -14.8715    28.8475 H6            1 RES     
    1305 H6         -13.5115   -13.3713    29.3970 H6            1 RES     
    1306 H6         -12.4077   -15.2058    30.4857 H6            1 RES     
    1307 H6         -11.2703   -14.4679    29.3495 H6            1 RES     
    1308 H6         -11.6575   -16.3339    27.7125 H6            1 RES     
    1309 H6         -11.0453   -16.8958    29.3007 H6            1 RES     
    1310 H6         -13.9740   -17.0903    28.3283 H6            1 RES     
    1311 H6         -12.7685   -18.4136    28.4259 H6            1 RES     
    1312 H6         -12.6396   -18.1471    30.9160 H6            1 RES     
    1313 H6         -13.9023   -16.8503    30.8373 H6            1 RES     
    1314 H6         -14.3083   -18.5229    30.3430 H6            1 RES     
    1315 C0          -3.7334     0.2784    40.5194 C0            1 RES     
    1316 C0          -5.5441     0.0033    40.2610 C0            1 RES     
    1317 C0          -5.8804    -1.2517    40.7524 C0            1 RES     
    1318 S1          -7.4411    -1.8332    40.3307 S1            1 RES     
    1319 C0          -8.0589    -0.6048    39.4008 C0            1 RES     
    1320 C0          -6.8749     0.4018    39.4692 C0            1 RES     
    1321 C0          -4.7019    -2.0792    41.0132 C0            1 RES     
    1322 C0          -3.7525    -1.2403    40.1734 C0            1 RES     
    1323 C0          -3.6406    -1.7396    38.9124 C0            1 RES     
    1324 C0          -4.2550    -2.9712    38.6993 C0            1 RES     
    1325 S1          -4.9813    -3.6787    40.1527 S1            1 RES     
    1326 H2          -6.9613     1.2888    38.8532 H2            1 RES     
    1327 H2          -3.2952    -1.1598    38.0722 H2            1 RES     
    1328 N3         -11.2118    -2.7968    38.3017 N3            1 RES     
    1329 C0         -10.0342    -2.3406    38.7552 C0            1 RES     
    1330 C0          -9.5817    -0.9381    38.7361 C0            1 RES     
    1331 C0         -10.6481    -0.1228    38.1178 C0            1 RES     
    1332 N3         -10.5907     1.2320    37.9171 N3            1 RES     
    1333 S1         -12.0647     1.5924    37.2295 S1            1 RES     
    1334 N3         -12.8209     0.1274    37.1207 N3            1 RES     
    1335 C0         -11.9100    -0.7006    37.6496 C0            1 RES     
    1336 C0         -12.1934    -2.0416    37.7361 C0            1 RES     
    1337 H4          -9.4075    -3.1122    39.1437 H4            1 RES     
    1338 C5          11.8477     0.9296    52.0528 C5            1 RES     
    1339 C5          10.4897     0.9894    51.2974 C5            1 RES     
    1340 C5          10.5619     1.7379    49.9260 C5            1 RES     
    1341 C5           9.3231     1.6022    48.9134 C5            1 RES     
    1342 C5           7.9516     2.3607    49.1782 C5            1 RES     
    1343 C5           6.5632     2.0660    48.3049 C5            1 RES     
    1344 C5           6.2000     2.5649    46.7710 C5            1 RES     
    1345 C5           4.6507     2.6070    45.9478 C5            1 RES     
    1346 C5           3.7689     1.4806    45.0184 C5            1 RES     
    1347 C5           2.1674     1.3145    44.2112 C5            1 RES     
    1348 C5           1.3826     1.7155    42.6627 C5            1 RES     
    1349 C5           2.3302     2.9927    42.2825 C5            1 RES     
    1350 C5           2.5047     4.2178    43.2913 C5            1 RES     
    1351 C5           3.8055     5.1087    43.0847 C5            1 RES     
    1352 C5           3.8896     6.4200    43.9562 C5            1 RES     
    1353 C5           2.6335     7.3142    43.8680 C5            1 RES     
    1354 C5           2.2257     7.6949    42.4240 C5            1 RES     
    1355 C5           2.3598     9.1759    42.0514 C5            1 RES     
    1356 C5           3.7753     9.7338    42.1517 C5            1 RES     
    1357 C5          -0.2530     1.2944    41.6388 C5            1 RES     
    1358 C0          -2.1463     0.7976    41.6203 C0            1 RES     
    1359 C5          -2.6471     1.5353    42.8885 C5            1 RES     
    1360 C5          -1.6827     1.4931    44.1706 C5            1 RES     
    1361 C5          -1.8617     0.2268    45.0255 C5            1 RES     
    1362 C5          -1.8104    -1.1377    44.3002 C5            1 RES     
    1363 C5          -0.5612    -1.3937    43.4290 C5            1 RES     
    1364 C5          -0.3654    -2.8442    43.0076 C5            1 RES     
    1365 C5          -1.5972    -3.4183    42.3069 C5            1 RES     
    1366 C5          -1.4569    -4.9266    42.1287 C5            1 RES     
    1367 C5          -2.8057    -5.5125    41.7337 C5            1 RES     
    1368 C5          -2.8094    -7.0240    41.7352 C5            1 RES     
    1369 C5          -1.7912     2.8140    45.0061 C5            1 RES     
    1370 C5          -0.6807     3.2551    46.0352 C5            1 RES     
    1371 C5          -0.5084     2.5909    47.4284 C5            1 RES     
    1372 C5          -1.8161     2.5721    48.2303 C5            1 RES     
    1373 C5          -1.6258     2.2160    49.7221 C5            1 RES     
    1374 C5          -2.9640     1.8446    50.3983 C5            1 RES     
    1375 C5          -4.0758     2.9128    50.3342 C5            1 RES     
    1376 C5          -3.8048     4.1989    51.1370 C5            1 RES     
    1377 C5          -3.6420     3.9941    52.6562 C5            1 RES     
    1378 C5          -4.8733     3.3736    53.3222 C5            1 RES     
    1379 H6          12.6255     0.3986    51.4577 H6            1 RES     
    1380 H6          12.2368     1.9367    52.3141 H6            1 RES     
    1381 H6          11.7401     0.3588    53.0064 H6            1 RES     
    1382 H6          10.1961    -0.0667    51.1225 H6            1 RES     
    1383 H6           9.7424     1.4689    51.9615 H6            1 RES     
    1384 H6          10.8514     2.7981    50.1050 H6            1 RES     
    1385 H6          11.4316     1.2644    49.4109 H6            1 RES     
    1386 H6           9.1258     0.5158    48.8312 H6            1 RES     
    1387 H6           9.6976     1.9697    47.9369 H6            1 RES     
    1388 H6           8.1752     3.4526    49.2246 H6            1 RES     
    1389 H6           7.7192     2.0740    50.2317 H6            1 RES     
    1390 H6           5.8082     2.5807    48.9396 H6            1 RES     
    1391 H6           6.3848     0.9803    48.3910 H6            1 RES     
    1392 H6           6.4704     3.6446    46.8828 H6            1 RES     
    1393 H6           6.9814     2.1577    46.0969 H6            1 RES     
    1394 H6           4.8638     3.4394    45.2454 H6            1 RES     
    1395 H6           3.9940     3.0488    46.7277 H6            1 RES     
    1396 H6           4.5171     1.1276    44.2790 H6            1 RES     
    1397 H6           3.7055     0.6924    45.7961 H6            1 RES     
    1398 H6           1.4848     1.6306    45.0059 H6            1 RES     
    1399 H6           2.1113     0.2181    44.1937 H6            1 RES     
    1400 H6           1.9731     1.0090    42.0373 H6            1 RES     
    1401 H6           2.1809     3.3541    41.2454 H6            1 RES     
    1402 H6           3.3759     2.5858    42.2754 H6            1 RES     
    1403 H6           2.5730     3.8794    44.3441 H6            1 RES     
    1404 H6           1.6019     4.8393    43.1865 H6            1 RES     
    1405 H6           3.9103     5.3879    42.0231 H6            1 RES     
    1406 H6           4.7319     4.5276    43.3024 H6            1 RES     
    1407 H6           4.7840     7.0192    43.6584 H6            1 RES     
    1408 H6           4.0363     6.1612    45.0305 H6            1 RES     
    1409 H6           1.8143     6.7231    44.3221 H6            1 RES     
    1410 H6           2.7121     8.2183    44.5150 H6            1 RES     
    1411 H6           2.7489     7.0875    41.6670 H6            1 RES     
    1412 H6           1.1485     7.4503    42.3141 H6            1 RES     
    1413 H6           1.6862     9.7796    42.6950 H6            1 RES     
    1414 H6           2.0174     9.2789    40.9977 H6            1 RES     
    1415 H6           4.4774     9.1537    41.5179 H6            1 RES     
    1416 H6           3.7645    10.7881    41.7978 H6            1 RES     
    1417 H6           4.1251     9.7257    43.2043 H6            1 RES     
    1418 H6           0.1434     0.4775    40.9934 H6            1 RES     
    1419 H6          -0.2313     2.1250    40.9020 H6            1 RES     
    1420 H6          -2.7389     2.5786    42.5303 H6            1 RES     
    1421 H6          -3.6553     1.1664    43.1613 H6            1 RES     
    1422 H6          -0.6448     1.5063    43.8952 H6            1 RES     
    1423 H6          -1.0716     0.2262    45.7971 H6            1 RES     
    1424 H6          -2.8415     0.2847    45.5363 H6            1 RES     
    1425 H6          -1.8528    -1.9096    45.0965 H6            1 RES     
    1426 H6          -2.7215    -1.2310    43.6727 H6            1 RES     
    1427 H6          -0.6619    -0.8682    42.4999 H6            1 RES     
    1428 H6           0.3504    -1.0611    43.9508 H6            1 RES     
    1429 H6           0.5146    -2.9174    42.3270 H6            1 RES     
    1430 H6          -0.1518    -3.4223    43.9283 H6            1 RES     
    1431 H6          -2.4715    -3.2624    42.9665 H6            1 RES     
    1432 H6          -1.7911    -2.9078    41.3358 H6            1 RES     
    1433 H6          -0.6750    -5.1662    41.3745 H6            1 RES     
    1434 H6          -1.1708    -5.3655    43.1073 H6            1 RES     
    1435 H6          -3.0403    -5.1681    40.7176 H6            1 RES     
    1436 H6          -3.5827    -5.1754    42.4605 H6            1 RES     
    1437 H6          -2.0996    -7.4010    40.9727 H6            1 RES     
    1438 H6          -3.8359    -7.3748    41.4946 H6            1 RES     
    1439 H6          -2.5301    -7.3979    42.7423 H6            1 RES     
    1440 H6          -2.7951     2.8949    45.4600 H6            1 RES     
    1441 H6          -1.7033     3.6186    44.2412 H6            1 RES     
    1442 H6           0.3080     3.2986    45.5404 H6            1 RES     
    1443 H6          -0.9132     4.3168    46.2691 H6            1 RES     
    1444 H6          -0.0863     1.5665    47.3616 H6            1 RES     
    1445 H6           0.2391     3.2063    47.9855 H6            1 RES     
    1446 H6          -2.4736     1.8234    47.7436 H6            1 RES     
    1447 H6          -2.2932     3.5740    48.1847 H6            1 RES     
    1448 H6          -1.1275     3.0565    50.2583 H6            1 RES     
    1449 H6          -0.9672     1.3250    49.8150 H6            1 RES     
    1450 H6          -2.7835     1.5500    51.4537 H6            1 RES     
    1451 H6          -3.3474     0.9419    49.8757 H6            1 RES     
    1452 H6          -5.0183     2.4573    50.7005 H6            1 RES     
    1453 H6          -4.2639     3.1839    49.2750 H6            1 RES     
    1454 H6          -2.8947     4.6966    50.7409 H6            1 RES     
    1455 H6          -4.6617     4.8894    50.9723 H6            1 RES     
    1456 H6          -2.7527     3.3659    52.8685 H6            1 RES     
    1457 H6          -3.4689     4.9902    53.1184 H6            1 RES     
    1458 H6          -5.7725     3.9996    53.1383 H6            1 RES     
    1459 H6          -5.0573     2.3460    52.9473 H6            1 RES     
    1460 H6          -4.7070     3.3059    54.4179 H6            1 RES     
    1461 C0         -15.0450    -5.0641    34.6204 C0            1 RES     
    1462 C0         -14.2042    -6.0336    35.9524 C0            1 RES     
    1463 C0         -14.7256    -5.6502    37.1815 C0            1 RES     
    1464 S1         -13.8688    -6.1955    38.5672 S1            1 RES     
    1465 C0         -12.6076    -7.0539    37.9130 C0            1 RES     
    1466 C0         -12.9411    -6.9055    36.4009 C0            1 RES     
    1467 C0         -15.5088    -4.4173    37.0916 C0            1 RES     
    1468 C0         -14.9460    -3.9913    35.7453 C0            1 RES     
    1469 C0         -13.8968    -3.1383    35.8995 C0            1 RES     
    1470 C0         -13.6659    -2.7023    37.2019 C0            1 RES     
    1471 S1         -14.8545    -3.2832    38.3809 S1            1 RES     
    1472 H2         -12.2094    -7.2997    35.7059 H2            1 RES     
    1473 H2         -13.1577    -2.9614    35.1354 H2            1 RES     
    1474 N3         -10.8006    -7.4224    41.4559 N3            1 RES     
    1475 C0         -11.5693    -7.0715    40.4137 C0            1 RES     
    1476 C0         -11.5030    -7.6411    39.0561 C0            1 RES     
    1477 C0         -10.4316    -8.6591    39.0402 C0            1 RES     
    1478 N3         -10.0644    -9.4024    37.9485 N3            1 RES     
    1479 S1          -8.8522   -10.3862    38.5299 S1            1 RES     
    1480 N3          -8.7020    -9.9378    40.1131 N3            1 RES     
    1481 C0          -9.6374    -8.9854    40.2269 C0            1 RES     
    1482 C0          -9.8170    -8.3636    41.4382 C0            1 RES     
    1483 H4         -12.2659    -6.2976    40.6486 H4            1 RES     
    1484 C5         -31.1270     0.9580    25.6026 C5            1 RES     
    1485 C5         -29.9383     0.2681    26.3305 C5            1 RES     
    1486 C5         -28.5868     0.3460    25.5473 C5            1 RES     
    1487 C5         -27.2325    -0.0449    26.3164 C5            1 RES     
    1488 C5         -26.8760    -1.5583    26.6463 C5            1 RES     
    1489 C5         -25.6209    -2.0019    27.6488 C5            1 RES     
    1490 C5         -24.0019    -2.0045    27.3131 C5            1 RES     
    1491 C5         -22.6854    -2.7892    28.1682 C5            1 RES     
    1492 C5         -21.6829    -2.3404    29.4734 C5            1 RES     
    1493 C5         -20.3937    -3.0351    30.5220 C5            1 RES     
    1494 C5         -18.6261    -3.2588    30.5278 C5            1 RES     
    1495 C5         -18.4212    -3.2789    28.9057 C5            1 RES     
    1496 C5         -19.2309    -4.3024    27.9860 C5            1 RES     
    1497 C5         -19.3695    -3.9006    26.4538 C5            1 RES     
    1498 C5         -20.0074    -4.9902    25.5094 C5            1 RES     
    1499 C5         -19.3460    -6.3814    25.6192 C5            1 RES     
    1500 C5         -17.8119    -6.3727    25.4130 C5            1 RES     
    1501 C5         -17.2944    -7.0805    24.1554 C5            1 RES     
    1502 C5         -17.8066    -6.5020    22.8409 C5            1 RES     
    1503 C5         -17.1629    -3.7363    31.7657 C5            1 RES     
    1504 C0         -16.5473    -4.7099    33.3483 C0            1 RES     
    1505 C5         -17.4292    -5.9818    33.2617 C5            1 RES     
    1506 C5         -18.9612    -5.7647    32.8358 C5            1 RES     
    1507 C5         -19.8757    -5.3997    34.0178 C5            1 RES     
    1508 C5         -19.4286    -4.2374    34.9341 C5            1 RES     
    1509 C5         -19.1070    -2.9033    34.2258 C5            1 RES     
    1510 C5         -19.0046    -1.6990    35.1527 C5            1 RES     
    1511 C5         -18.0060    -1.9221    36.2890 C5            1 RES     
    1512 C5         -18.1168    -0.8082    37.3249 C5            1 RES     
    1513 C5         -17.3606    -1.2156    38.5821 C5            1 RES     
    1514 C5         -17.5865    -0.2638    39.7344 C5            1 RES     
    1515 C5         -19.4962    -6.9789    32.0025 C5            1 RES     
    1516 C5         -20.7744    -6.8747    31.0850 C5            1 RES     
    1517 C5         -22.2204    -6.8467    31.6508 C5            1 RES     
    1518 C5         -22.4985    -8.0219    32.5969 C5            1 RES     
    1519 C5         -23.9957    -8.2123    32.9290 C5            1 RES     
    1520 C5         -24.1995    -9.1396    34.1474 C5            1 RES     
    1521 C5         -23.5857   -10.5509    34.0359 C5            1 RES     
    1522 C5         -24.2305   -11.4716    32.9831 C5            1 RES     
    1523 C5         -25.7207   -11.7864    33.2210 C5            1 RES     
    1524 C5         -25.9903   -12.4796    34.5595 C5            1 RES     
    1525 H6         -30.9336     2.0426    25.4378 H6            1 RES     
    1526 H6         -31.3558     0.4921    24.6205 H6            1 RES     
    1527 H6         -32.0538     0.8963    26.2220 H6            1 RES     
    1528 H6         -29.8305     0.7985    27.2995 H6            1 RES     
    1529 H6         -30.2139    -0.7884    26.5235 H6            1 RES     
    1530 H6         -28.6964    -0.1914    24.5782 H6            1 RES     
    1531 H6         -28.4914     1.4279    25.2899 H6            1 RES     
    1532 H6         -27.2489     0.5367    27.2584 H6            1 RES     
    1533 H6         -26.4097     0.3359    25.6786 H6            1 RES     
    1534 H6         -26.8351    -2.1123    25.6788 H6            1 RES     
    1535 H6         -27.8084    -1.9212    27.1415 H6            1 RES     
    1536 H6         -25.8612    -3.0752    27.8163 H6            1 RES     
    1537 H6         -25.7992    -1.4694    28.5988 H6            1 RES     
    1538 H6         -24.0398    -2.5427    26.3332 H6            1 RES     
    1539 H6         -23.7185    -0.9667    27.0422 H6            1 RES     
    1540 H6         -21.9887    -2.9126    27.3132 H6            1 RES     
    1541 H6         -23.1057    -3.8022    28.3462 H6            1 RES     
    1542 H6         -21.3193    -1.3357    29.1744 H6            1 RES     
    1543 H6         -22.4957    -2.1702    30.2084 H6            1 RES     
    1544 H6         -20.8371    -3.9919    30.8140 H6            1 RES     
    1545 H6         -20.5214    -2.3744    31.3895 H6            1 RES     
    1546 H6         -18.3644    -2.1802    30.6122 H6            1 RES     
    1547 H6         -17.3571    -3.2301    28.5990 H6            1 RES     
    1548 H6         -18.8470    -2.3044    28.5476 H6            1 RES     
    1549 H6         -20.2772    -4.4269    28.3287 H6            1 RES     
    1550 H6         -18.7205    -5.2738    28.0760 H6            1 RES     
    1551 H6         -18.3854    -3.6172    26.0446 H6            1 RES     
    1552 H6         -19.9864    -2.9798    26.3318 H6            1 RES     
    1553 H6         -19.9609    -4.6484    24.4470 H6            1 RES     
    1554 H6         -21.0895    -5.1191    25.7442 H6            1 RES     
    1555 H6         -19.5623    -6.7339    26.6468 H6            1 RES     
    1556 H6         -19.8358    -7.1354    24.9607 H6            1 RES     
    1557 H6         -17.3901    -5.3546    25.4488 H6            1 RES     
    1558 H6         -17.3641    -6.9143    26.2724 H6            1 RES     
    1559 H6         -17.5585    -8.1576    24.2045 H6            1 RES     
    1560 H6         -16.1850    -6.9943    24.1664 H6            1 RES     
    1561 H6         -17.5580    -5.4240    22.7569 H6            1 RES     
    1562 H6         -17.3186    -7.0461    22.0026 H6            1 RES     
    1563 H6         -18.9034    -6.6426    22.7528 H6            1 RES     
    1564 H6         -16.8304    -2.7134    32.0553 H6            1 RES     
    1565 H6         -16.3667    -3.9769    31.0298 H6            1 RES     
    1566 H6         -16.9102    -6.5728    32.4828 H6            1 RES     
    1567 H6         -17.3777    -6.5377    34.2184 H6            1 RES     
    1568 H6         -19.0741    -4.9630    32.1303 H6            1 RES     
    1569 H6         -20.8685    -5.1414    33.6089 H6            1 RES     
    1570 H6         -19.9901    -6.2927    34.6608 H6            1 RES     
    1571 H6         -20.2637    -4.0699    35.6457 H6            1 RES     
    1572 H6         -18.5398    -4.5719    35.5092 H6            1 RES     
    1573 H6         -18.1354    -2.9644    33.7766 H6            1 RES     
    1574 H6         -19.8627    -2.6811    33.4555 H6            1 RES     
    1575 H6         -18.7002    -0.8025    34.5640 H6            1 RES     
    1576 H6         -20.0163    -1.5244    35.5689 H6            1 RES     
    1577 H6         -18.2806    -2.8594    36.8085 H6            1 RES     
    1578 H6         -16.9648    -2.0221    35.9054 H6            1 RES     
    1579 H6         -17.7347     0.1534    36.9164 H6            1 RES     
    1580 H6         -19.1871    -0.6932    37.5962 H6            1 RES     
    1581 H6         -16.2882    -1.2221    38.3454 H6            1 RES     
    1582 H6         -17.7047    -2.2254    38.9101 H6            1 RES     
    1583 H6         -17.1917     0.7383    39.4753 H6            1 RES     
    1584 H6         -17.0521    -0.6558    40.6263 H6            1 RES     
    1585 H6         -18.6709    -0.2048    39.9639 H6            1 RES     
    1586 H6         -19.5461    -7.8821    32.6365 H6            1 RES     
    1587 H6         -18.7014    -7.1474    31.2408 H6            1 RES     
    1588 H6         -20.6628    -6.0455    30.3609 H6            1 RES     
    1589 H6         -20.7490    -7.7898    30.4542 H6            1 RES     
    1590 H6         -22.4619    -5.8866    32.1527 H6            1 RES     
    1591 H6         -22.9081    -6.9282    30.7743 H6            1 RES     
    1592 H6         -21.9275    -7.8204    33.5260 H6            1 RES     
    1593 H6         -22.1370    -8.9643    32.1335 H6            1 RES     
    1594 H6         -24.5419    -8.5987    32.0376 H6            1 RES     
    1595 H6         -24.4486    -7.2332    33.1982 H6            1 RES     
    1596 H6         -25.2815    -9.2159    34.3856 H6            1 RES     
    1597 H6         -23.7160    -8.6402    35.0145 H6            1 RES     
    1598 H6         -23.6568   -11.0412    35.0281 H6            1 RES     
    1599 H6         -22.5010   -10.4635    33.8200 H6            1 RES     
    1600 H6         -24.1141   -11.0192    31.9759 H6            1 RES     
    1601 H6         -23.6708   -12.4334    32.9841 H6            1 RES     
    1602 H6         -26.3266   -10.8593    33.1579 H6            1 RES     
    1603 H6         -26.0598   -12.4664    32.4095 H6            1 RES     
    1604 H6         -25.4075   -13.4224    34.6342 H6            1 RES     
    1605 H6         -25.7326   -11.8191    35.4126 H6            1 RES     
    1606 H6         -27.0706   -12.7237    34.6390 H6            1 RES     
    1607 C0          -6.3804    -7.2641    45.1740 C0            1 RES     
    1608 C0          -8.0532    -6.5639    45.5382 C0            1 RES     
    1609 C0          -8.9446    -7.6119    45.7295 C0            1 RES     
    1610 S1         -10.6092    -7.1884    45.7675 S1            1 RES     
    1611 C0         -10.5821    -5.5449    45.5364 C0            1 RES     
    1612 C0          -9.0462    -5.3137    45.4511 C0            1 RES     
    1613 C0          -8.3990    -8.8933    45.2800 C0            1 RES     
    1614 C0          -7.2932    -8.2855    44.4324 C0            1 RES     
    1615 C0          -7.6808    -8.1636    43.1336 C0            1 RES     
    1616 C0          -8.8995    -8.7574    42.8141 C0            1 RES     
    1617 S1          -9.6517    -9.6340    44.1580 S1            1 RES     
    1618 H2          -8.7238    -4.3105    45.1994 H2            1 RES     
    1619 H2          -7.2121    -7.4908    42.4343 H2            1 RES     
    1620 N3         -14.5484    -5.3722    45.0981 N3            1 RES     
    1621 C0         -13.2610    -5.7383    45.1937 C0            1 RES     
    1622 C0         -12.1171    -4.8367    45.4186 C0            1 RES     
    1623 C0         -12.6353    -3.4555    45.5079 C0            1 RES     
    1624 N3         -11.8697    -2.3358    45.7055 N3            1 RES     
    1625 S1         -12.9840    -1.0982    45.7522 S1            1 RES     
    1626 N3         -14.4311    -1.8577    45.5091 N3            1 RES     
    1627 C0         -14.0614    -3.1404    45.3950 C0            1 RES     
    1628 C0         -15.0222    -4.0988    45.1847 C0            1 RES     
    1629 H4         -13.1146    -6.7892    45.0780 H4            1 RES     
    1630 C5           8.5557   -18.7642    49.7430 C5            1 RES     
    1631 C5           7.3586   -17.7820    49.5990 C5            1 RES     
    1632 C5           7.6125   -16.6211    48.5822 C5            1 RES     
    1633 C5           6.3631   -15.7296    48.1102 C5            1 RES     
    1634 C5           5.7059   -14.6505    49.0744 C5            1 RES     
    1635 C5           4.2686   -13.8788    48.7343 C5            1 RES     
    1636 C5           4.0025   -12.6478    47.6630 C5            1 RES     
    1637 C5           2.6284   -11.5649    47.5252 C5            1 RES     
    1638 C5           1.1348   -11.6403    46.7044 C5            1 RES     
    1639 C5          -0.3946   -10.7036    46.5392 C5            1 RES     
    1640 C5          -1.0617    -9.3562    45.5831 C5            1 RES     
    1641 C5           0.3592    -8.6104    45.2693 C5            1 RES     
    1642 C5           1.3426    -8.1810    46.4514 C5            1 RES     
    1643 C5           2.8656    -7.9694    46.0466 C5            1 RES     
    1644 C5           3.8009    -7.3718    47.1666 C5            1 RES     
    1645 C5           3.2566    -6.0810    47.8165 C5            1 RES     
    1646 C5           2.9029    -4.9625    46.8066 C5            1 RES     
    1647 C5           3.7736    -3.7018    46.8611 C5            1 RES     
    1648 C5           5.2550    -3.9367    46.5869 C5            1 RES     
    1649 C5          -2.7952    -8.5070    45.1649 C5            1 RES     
    1650 C0          -4.6198    -8.0497    45.7066 C0            1 RES     
    1651 C5          -4.4165    -7.8173    47.2257 C5            1 RES     
    1652 C5          -3.4467    -8.8459    47.9852 C5            1 RES     
    1653 C5          -4.1577   -10.1337    48.4353 C5            1 RES     
    1654 C5          -4.9883   -10.8975    47.3783 C5            1 RES     
    1655 C5          -4.2498   -11.2615    46.0718 C5            1 RES     
    1656 C5          -4.9614   -12.2912    45.2039 C5            1 RES     
    1657 C5          -6.3981   -11.8831    44.8760 C5            1 RES     
    1658 C5          -7.1481   -13.0414    44.2262 C5            1 RES     
    1659 C5          -8.6377   -12.7267    44.2077 C5            1 RES     
    1660 C5          -9.4784   -13.9037    43.7688 C5            1 RES     
    1661 C5          -2.6691    -8.1399    49.1479 C5            1 RES     
    1662 C5          -1.3526    -8.7440    49.7713 C5            1 RES     
    1663 C5          -1.3566    -9.9570    50.7411 C5            1 RES     
    1664 C5          -2.3064    -9.7505    51.9280 C5            1 RES     
    1665 C5          -2.1092   -10.7750    53.0681 C5            1 RES     
    1666 C5          -3.2996   -10.7740    54.0524 C5            1 RES     
    1667 C5          -3.6257    -9.4220    54.7209 C5            1 RES     
    1668 C5          -2.5628    -8.8962    55.7035 C5            1 RES     
    1669 C5          -2.2997    -9.8029    56.9221 C5            1 RES     
    1670 C5          -3.5425   -10.0386    57.7851 C5            1 RES     
    1671 H6           8.8012   -19.2570    48.7746 H6            1 RES     
    1672 H6           9.4736   -18.2673    50.1231 H6            1 RES     
    1673 H6           8.3044   -19.5853    50.4566 H6            1 RES     
    1674 H6           6.5054   -18.3977    49.2453 H6            1 RES     
    1675 H6           7.1205   -17.3735    50.6019 H6            1 RES     
    1676 H6           8.4653   -16.0022    48.9423 H6            1 RES     
    1677 H6           7.9778   -17.1453    47.6669 H6            1 RES     
    1678 H6           5.5867   -16.4527    47.7935 H6            1 RES     
    1679 H6           6.7161   -15.1746    47.2179 H6            1 RES     
    1680 H6           6.5012   -13.9188    49.3513 H6            1 RES     
    1681 H6           5.5261   -15.2395    50.0055 H6            1 RES     
    1682 H6           4.0390   -13.4263    49.7244 H6            1 RES     
    1683 H6           3.5349   -14.6845    48.5592 H6            1 RES     
    1684 H6           4.8397   -11.9755    47.9766 H6            1 RES     
    1685 H6           4.3068   -13.0107    46.6598 H6            1 RES     
    1686 H6           3.1512   -10.6981    47.0702 H6            1 RES     
    1687 H6           2.4620   -11.2772    48.5855 H6            1 RES     
    1688 H6           1.4317   -11.9172    45.6718 H6            1 RES     
    1689 H6           0.7709   -12.5721    47.1831 H6            1 RES     
    1690 H6          -0.6495   -10.5090    47.5854 H6            1 RES     
    1691 H6          -1.0510   -11.5255    46.2242 H6            1 RES     
    1692 H6          -1.0714    -9.8896    44.6061 H6            1 RES     
    1693 H6           0.2713    -7.8018    44.5162 H6            1 RES     
    1694 H6           0.9866    -9.3862    44.7557 H6            1 RES     
    1695 H6           1.3796    -8.9428    47.2551 H6            1 RES     
    1696 H6           0.9329    -7.2513    46.8759 H6            1 RES     
    1697 H6           2.9358    -7.3262    45.1536 H6            1 RES     
    1698 H6           3.3351    -8.9281    45.7247 H6            1 RES     
    1699 H6           4.8157    -7.1675    46.7470 H6            1 RES     
    1700 H6           3.9496    -8.1158    47.9833 H6            1 RES     
    1701 H6           2.3326    -6.3817    48.3483 H6            1 RES     
    1702 H6           3.9256    -5.6987    48.6217 H6            1 RES     
    1703 H6           2.8721    -5.3304    45.7676 H6            1 RES     
    1704 H6           1.8700    -4.6284    47.0382 H6            1 RES     
    1705 H6           3.6613    -3.2198    47.8548 H6            1 RES     
    1706 H6           3.3821    -3.0019    46.0896 H6            1 RES     
    1707 H6           5.4052    -4.4172    45.5981 H6            1 RES     
    1708 H6           5.7738    -2.9530    46.5870 H6            1 RES     
    1709 H6           5.7050    -4.5654    47.3823 H6            1 RES     
    1710 H6          -3.0277    -9.0318    44.2103 H6            1 RES     
    1711 H6          -2.4352    -7.5417    44.7503 H6            1 RES     
    1712 H6          -3.9707    -6.8044    47.2490 H6            1 RES     
    1713 H6          -5.4007    -7.7808    47.7328 H6            1 RES     
    1714 H6          -2.6358    -9.1717    47.3610 H6            1 RES     
    1715 H6          -3.3890   -10.8261    48.8217 H6            1 RES     
    1716 H6          -4.8438    -9.8829    49.2662 H6            1 RES     
    1717 H6          -5.3232   -11.8343    47.8703 H6            1 RES     
    1718 H6          -5.8849   -10.2889    47.1364 H6            1 RES     
    1719 H6          -4.1897   -10.3945    45.4439 H6            1 RES     
    1720 H6          -3.2372   -11.6368    46.2903 H6            1 RES     
    1721 H6          -4.3925   -12.4343    44.2559 H6            1 RES     
    1722 H6          -4.9597   -13.2452    45.7671 H6            1 RES     
    1723 H6          -6.9199   -11.6686    45.8276 H6            1 RES     
    1724 H6          -6.4292   -10.9680    44.2413 H6            1 RES     
    1725 H6          -6.7632   -13.2382    43.2011 H6            1 RES     
    1726 H6          -7.0008   -13.9447    44.8542 H6            1 RES     
    1727 H6          -8.8015   -11.9030    43.5000 H6            1 RES     
    1728 H6          -8.9690   -12.4438    45.2354 H6            1 RES     
    1729 H6          -9.2299   -14.1722    42.7232 H6            1 RES     
    1730 H6         -10.5498   -13.6169    43.8354 H6            1 RES     
    1731 H6          -9.2960   -14.7661    44.4435 H6            1 RES     
    1732 H6          -3.3714    -7.8352    49.9443 H6            1 RES     
    1733 H6          -2.2740    -7.2117    48.6761 H6            1 RES     
    1734 H6          -0.6004    -8.9268    48.9808 H6            1 RES     
    1735 H6          -0.9165    -7.9178    50.3739 H6            1 RES     
    1736 H6          -1.5905   -10.9120    50.2262 H6            1 RES     
    1737 H6          -0.3157   -10.0550    51.1343 H6            1 RES     
    1738 H6          -3.3365    -9.8272    51.5245 H6            1 RES     
    1739 H6          -2.1481    -8.7386    52.3577 H6            1 RES     
    1740 H6          -1.1503   -10.5784    53.6012 H6            1 RES     
    1741 H6          -2.0503   -11.8016    52.6450 H6            1 RES     
    1742 H6          -3.1462   -11.5524    54.8295 H6            1 RES     
    1743 H6          -4.1968   -11.0760    53.4704 H6            1 RES     
    1744 H6          -4.5893    -9.5236    55.2606 H6            1 RES     
    1745 H6          -3.7990    -8.6568    53.9365 H6            1 RES     
    1746 H6          -1.6072    -8.7342    55.1619 H6            1 RES     
    1747 H6          -2.9063    -7.9063    56.0784 H6            1 RES     
    1748 H6          -1.8876   -10.7796    56.5955 H6            1 RES     
    1749 H6          -1.5321    -9.3084    57.5563 H6            1 RES     
    1750 H6          -3.9594    -9.0719    58.1398 H6            1 RES     
    1751 H6          -4.3225   -10.5916    57.2228 H6            1 RES     
    1752 H6          -3.2685   -10.6519    58.6692 H6            1 RES     
    1753 C0         -19.5262    -3.8102    42.6146 C0            1 RES     
    1754 C0         -19.1632    -5.5291    43.1931 C0            1 RES     
    1755 C0         -19.1795    -5.5463    44.5820 C0            1 RES     
    1756 S1         -18.5597    -6.9656    45.3257 S1            1 RES     
    1757 C0         -18.1104    -7.9008    44.0300 C0            1 RES     
    1758 C0         -18.5430    -6.9659    42.8645 C0            1 RES     
    1759 C0         -19.1502    -4.1995    45.1537 C0            1 RES     
    1760 C0         -18.6702    -3.5178    43.8827 C0            1 RES     
    1761 C0         -17.3159    -3.3849    43.8782 C0            1 RES     
    1762 C0         -16.6767    -3.7259    45.0677 C0            1 RES     
    1763 S1         -17.7804    -4.1777    46.3785 S1            1 RES     
    1764 H2         -18.2754    -7.2873    41.8651 H2            1 RES     
    1765 H2         -16.7366    -3.2339    42.9820 H2            1 RES     
    1766 N3         -16.2706   -10.5608    46.3738 N3            1 RES     
    1767 C0         -16.8711    -9.4845    45.8432 C0            1 RES     
    1768 C0         -17.3504    -9.3544    44.4556 C0            1 RES     
    1769 C0         -17.0422   -10.6139    43.7464 C0            1 RES     
    1770 N3         -17.3293   -10.8702    42.4307 N3            1 RES     
    1771 S1         -16.7914   -12.4307    42.2056 S1            1 RES     
    1772 N3         -16.1663   -12.8512    43.6761 N3            1 RES     
    1773 C0         -16.3841   -11.7464    44.4020 C0            1 RES     
    1774 C0         -15.9918   -11.7208    45.7179 C0            1 RES     
    1775 H4         -16.9734    -8.6782    46.5350 H4            1 RES     
    1776 C5         -30.7690    11.9939    42.3984 C5            1 RES     
    1777 C5         -30.0639    10.6078    42.3969 C5            1 RES     
    1778 C5         -29.0425    10.4196    41.2276 C5            1 RES     
    1779 C5         -28.0297     9.1750    41.2882 C5            1 RES     
    1780 C5         -28.5245     7.6915    41.0044 C5            1 RES     
    1781 C5         -27.5845     6.3459    41.2923 C5            1 RES     
    1782 C5         -26.3175     5.7780    40.3945 C5            1 RES     
    1783 C5         -25.5401     4.2050    40.4300 C5            1 RES     
    1784 C5         -24.2633     3.5318    41.3391 C5            1 RES     
    1785 C5         -23.4273     1.9550    41.5816 C5            1 RES     
    1786 C5         -22.1066     0.9974    40.8650 C5            1 RES     
    1787 C5         -22.2106     1.6122    39.3534 C5            1 RES     
    1788 C5         -23.5867     1.5809    38.5445 C5            1 RES     
    1789 C5         -23.7228     2.6363    37.3630 C5            1 RES     
    1790 C5         -24.9993     2.4886    36.4492 C5            1 RES     
    1791 C5         -25.2126     1.0634    35.8939 C5            1 RES     
    1792 C5         -23.9879     0.4843    35.1450 C5            1 RES     
    1793 C5         -24.1593     0.2631    33.6377 C5            1 RES     
    1794 C5         -24.4678     1.5243    32.8384 C5            1 RES     
    1795 C5         -20.9778    -0.5711    41.2731 C5            1 RES     
    1796 C0         -20.7608    -2.3052    42.1548 C0            1 RES     
    1797 C5         -22.2000    -2.8685    42.0343 C5            1 RES     
    1798 C5         -23.3992    -1.8334    42.2913 C5            1 RES     
    1799 C5         -23.7542    -1.6704    43.7793 C5            1 RES     
    1800 C5         -22.5979    -1.3692    44.7604 C5            1 RES     
    1801 C5         -21.7093    -0.1568    44.4066 C5            1 RES     
    1802 C5         -20.8095     0.3246    45.5372 C5            1 RES     
    1803 C5         -19.9354    -0.7953    46.1027 C5            1 RES     
    1804 C5         -19.2423    -0.3386    47.3823 C5            1 RES     
    1805 C5         -18.6488    -1.5489    48.0905 C5            1 RES     
    1806 C5         -18.1210    -1.2195    49.4680 C5            1 RES     
    1807 C5         -24.6428    -2.1731    41.4008 C5            1 RES     
    1808 C5         -25.7762    -1.1195    41.0973 C5            1 RES     
    1809 C5         -26.8509    -0.7105    42.1411 C5            1 RES     
    1810 C5         -27.5776    -1.9241    42.7349 C5            1 RES     
    1811 C5         -28.8527    -1.5588    43.5279 C5            1 RES     
    1812 C5         -29.3378    -2.7330    44.4065 C5            1 RES     
    1813 C5         -29.6366    -4.0545    43.6679 C5            1 RES     
    1814 C5         -30.8424    -4.0194    42.7105 C5            1 RES     
    1815 C5         -32.1958    -3.7122    43.3816 C5            1 RES     
    1816 C5         -32.5856    -4.7283    44.4589 C5            1 RES     
    1817 H6         -30.0363    12.8271    42.4982 H6            1 RES     
    1818 H6         -31.3717    12.1684    41.4817 H6            1 RES     
    1819 H6         -31.4608    12.0799    43.2705 H6            1 RES     
    1820 H6         -29.5264    10.5429    43.3659 H6            1 RES     
    1821 H6         -30.8436     9.8203    42.3607 H6            1 RES     
    1822 H6         -29.5852    10.4800    40.2572 H6            1 RES     
    1823 H6         -28.4061    11.3351    41.2814 H6            1 RES     
    1824 H6         -27.5696     9.2169    42.2945 H6            1 RES     
    1825 H6         -27.2488     9.3919    40.5319 H6            1 RES     
    1826 H6         -28.9533     7.6717    39.9748 H6            1 RES     
    1827 H6         -29.4077     7.6003    41.6811 H6            1 RES     
    1828 H6         -28.3488     5.5411    41.2156 H6            1 RES     
    1829 H6         -27.2826     6.4174    42.3514 H6            1 RES     
    1830 H6         -26.8039     5.8109    39.3877 H6            1 RES     
    1831 H6         -25.5543     6.5821    40.3537 H6            1 RES     
    1832 H6         -25.1766     4.1811    39.3817 H6            1 RES     
    1833 H6         -26.4163     3.5219    40.4470 H6            1 RES     
    1834 H6         -23.4574     4.2872    41.2341 H6            1 RES     
    1835 H6         -24.7149     3.6968    42.3385 H6            1 RES     
    1836 H6         -24.2729     1.2754    41.7241 H6            1 RES     
    1837 H6         -23.0262     2.1408    42.5867 H6            1 RES     
    1838 H6         -21.2815     1.6850    41.1573 H6            1 RES     
    1839 H6         -21.3636     1.3166    38.7022 H6            1 RES     
    1840 H6         -22.0757     2.7189    39.4806 H6            1 RES     
    1841 H6         -24.4552     1.7937    39.1987 H6            1 RES     
    1842 H6         -23.6938     0.5584    38.1505 H6            1 RES     
    1843 H6         -22.8277     2.6043    36.7197 H6            1 RES     
    1844 H6         -23.7359     3.6806    37.7535 H6            1 RES     
    1845 H6         -24.9423     3.2066    35.5954 H6            1 RES     
    1846 H6         -25.9169     2.7616    37.0203 H6            1 RES     
    1847 H6         -25.4199     0.4274    36.7768 H6            1 RES     
    1848 H6         -26.1362     0.9848    35.2751 H6            1 RES     
    1849 H6         -23.0733     1.0755    35.3174 H6            1 RES     
    1850 H6         -23.7846    -0.5175    35.5779 H6            1 RES     
    1851 H6         -24.9642    -0.4816    33.4643 H6            1 RES     
    1852 H6         -23.2037    -0.1647    33.2606 H6            1 RES     
    1853 H6         -23.6807     2.2920    32.9870 H6            1 RES     
    1854 H6         -24.5053     1.2574    31.7594 H6            1 RES     
    1855 H6         -25.4556     1.9383    33.1270 H6            1 RES     
    1856 H6         -20.0928    -0.0495    41.7037 H6            1 RES     
    1857 H6         -20.5789    -0.7833    40.2586 H6            1 RES     
    1858 H6         -22.2286    -3.2121    40.9825 H6            1 RES     
    1859 H6         -22.3127    -3.7497    42.6961 H6            1 RES     
    1860 H6         -23.1601    -0.8451    41.9457 H6            1 RES     
    1861 H6         -24.4875    -0.8488    43.8631 H6            1 RES     
    1862 H6         -24.2396    -2.6016    44.1276 H6            1 RES     
    1863 H6         -23.0729    -1.1861    45.7467 H6            1 RES     
    1864 H6         -21.9651    -2.2780    44.8395 H6            1 RES     
    1865 H6         -21.0217    -0.4339    43.6320 H6            1 RES     
    1866 H6         -22.3268     0.6926    44.0732 H6            1 RES     
    1867 H6         -20.1583     1.1506    45.1674 H6            1 RES     
    1868 H6         -21.4723     0.7226    46.3308 H6            1 RES     
    1869 H6         -20.5959    -1.6354    46.3887 H6            1 RES     
    1870 H6         -19.2019    -1.1626    45.3488 H6            1 RES     
    1871 H6         -18.4627     0.4236    47.1613 H6            1 RES     
    1872 H6         -20.0091     0.1032    48.0524 H6            1 RES     
    1873 H6         -17.8145    -1.9224    47.4818 H6            1 RES     
    1874 H6         -19.4370    -2.3297    48.2123 H6            1 RES     
    1875 H6         -17.2846    -0.4977    49.3858 H6            1 RES     
    1876 H6         -17.7588    -2.1574    49.9411 H6            1 RES     
    1877 H6         -18.9372    -0.7966    50.0902 H6            1 RES     
    1878 H6         -25.0825    -3.1367    41.7143 H6            1 RES     
    1879 H6         -24.2092    -2.3169    40.3852 H6            1 RES     
    1880 H6         -25.3415    -0.2008    40.6600 H6            1 RES     
    1881 H6         -26.3637    -1.5636    40.2646 H6            1 RES     
    1882 H6         -26.4354    -0.0787    42.9537 H6            1 RES     
    1883 H6         -27.5983    -0.0807    41.6002 H6            1 RES     
    1884 H6         -26.8506    -2.4321    43.4006 H6            1 RES     
    1885 H6         -27.8791    -2.6122    41.9169 H6            1 RES     
    1886 H6         -29.6560    -1.2225    42.8323 H6            1 RES     
    1887 H6         -28.6368    -0.7154    44.2194 H6            1 RES     
    1888 H6         -30.2256    -2.4205    44.9959 H6            1 RES     
    1889 H6         -28.5270    -2.9428    45.1371 H6            1 RES     
    1890 H6         -29.8073    -4.8462    44.4255 H6            1 RES     
    1891 H6         -28.7369    -4.3695    43.1004 H6            1 RES     
    1892 H6         -30.6581    -3.2705    41.9118 H6            1 RES     
    1893 H6         -30.9183    -5.0165    42.2225 H6            1 RES     
    1894 H6         -32.1869    -2.6941    43.8218 H6            1 RES     
    1895 H6         -32.9799    -3.7318    42.5937 H6            1 RES     
    1896 H6         -32.6203    -5.7537    44.0328 H6            1 RES     
    1897 H6         -31.8722    -4.7065    45.3080 H6            1 RES     
    1898 H6         -33.5905    -4.4768    44.8588 H6            1 RES     
    1899 C0         -11.9765   -14.0421    48.0554 C0            1 RES     
    1900 C0         -12.8962   -12.9195    49.2023 C0            1 RES     
    1901 C0         -14.1745   -13.4276    49.3957 C0            1 RES     
    1902 S1         -15.2932   -12.3792    50.1711 S1            1 RES     
    1903 C0         -14.3971   -11.0076    50.4374 C0            1 RES     
    1904 C0         -13.0282   -11.4678    49.8595 C0            1 RES     
    1905 C0         -14.5112   -14.4674    48.4225 C0            1 RES     
    1906 C0         -13.4071   -14.1054    47.4425 C0            1 RES     
    1907 C0         -13.8645   -13.2620    46.4773 C0            1 RES     
    1908 C0         -15.2401   -13.0445    46.4748 C0            1 RES     
    1909 S1         -16.1248   -13.9927    47.6825 S1            1 RES     
    1910 H2         -12.2492   -10.7165    49.8110 H2            1 RES     
    1911 H2         -13.2209   -12.6338    45.8835 H2            1 RES     
    1912 N3         -17.6110    -8.9265    51.5744 N3            1 RES     
    1913 C0         -16.7472    -9.8229    51.0738 C0            1 RES     
    1914 C0         -15.2771    -9.7254    51.1106 C0            1 RES     
    1915 C0         -14.9205    -8.4597    51.7853 C0            1 RES     
    1916 N3         -13.6428    -8.0131    52.0023 N3            1 RES     
    1917 S1         -13.8594    -6.5772    52.8188 S1            1 RES     
    1918 N3         -15.5013    -6.4219    52.9200 N3            1 RES     
    1919 C0         -15.9286    -7.5341    52.3074 C0            1 RES     
    1920 C0         -17.2783    -7.7633    52.1988 C0            1 RES     
    1921 H4         -17.2287   -10.6551    50.6103 H4            1 RES     
    1922 C5          -5.4195   -31.6322    43.1759 C5            1 RES     
    1923 C5          -5.8759   -30.2740    43.7805 C5            1 RES     
    1924 C5          -5.1881   -29.0294    43.1293 C5            1 RES     
    1925 C5          -5.7900   -27.5731    43.4377 C5            1 RES     
    1926 C5          -5.5740   -26.8703    44.8468 C5            1 RES     
    1927 C5          -6.3748   -25.4829    45.3062 C5            1 RES     
    1928 C5          -6.0815   -23.9299    44.8206 C5            1 RES     
    1929 C5          -6.6256   -22.4177    45.5257 C5            1 RES     
    1930 C5          -8.0189   -21.4521    45.3349 C5            1 RES     
    1931 C5          -8.7753   -19.9732    46.0310 C5            1 RES     
    1932 C5          -8.7266   -18.2034    45.8297 C5            1 RES     
    1933 C5          -7.2031   -18.1103    45.2434 C5            1 RES     
    1934 C5          -5.9723   -18.7354    46.0456 C5            1 RES     
    1935 C5          -4.6761   -19.0632    45.1850 C5            1 RES     
    1936 C5          -3.4013   -19.5084    45.9993 C5            1 RES     
    1937 C5          -3.0261   -18.5508    47.1514 C5            1 RES     
    1938 C5          -2.8570   -17.0740    46.7195 C5            1 RES     
    1939 C5          -1.4383   -16.5003    46.8125 C5            1 RES     
    1940 C5          -0.4026   -17.2157    45.9521 C5            1 RES     
    1941 C5          -9.7388   -16.5902    46.3530 C5            1 RES     
    1942 C0         -10.8886   -15.6687    47.6416 C0            1 RES     
    1943 C5         -10.3502   -16.2525    48.9728 C5            1 RES     
    1944 C5         -10.0064   -17.8201    48.9815 C5            1 RES     
    1945 C5         -11.2288   -18.7098    49.2659 C5            1 RES     
    1946 C5         -12.5000   -18.4683    48.4197 C5            1 RES     
    1947 C5         -12.3081   -18.4975    46.8876 C5            1 RES     
    1948 C5         -13.5992   -18.6000    46.0862 C5            1 RES     
    1949 C5         -14.5990   -17.5018    46.4499 C5            1 RES     
    1950 C5         -15.9578   -17.7844    45.8173 C5            1 RES     
    1951 C5         -17.0030   -16.8730    46.4461 C5            1 RES     
    1952 C5         -18.4124   -17.2240    46.0276 C5            1 RES     
    1953 C5          -8.7936   -18.1300    49.9237 C5            1 RES     
    1954 C5          -7.9532   -19.4593    49.8078 C5            1 RES     
    1955 C5          -8.4733   -20.8339    50.3096 C5            1 RES     
    1956 C5          -8.9442   -20.7810    51.7687 C5            1 RES     
    1957 C5          -9.1682   -22.1733    52.4009 C5            1 RES     
    1958 C5          -9.9820   -22.0843    53.7108 C5            1 RES     
    1959 C5          -9.3918   -21.1837    54.8161 C5            1 RES     
    1960 C5          -8.0746   -21.6800    55.4410 C5            1 RES     
    1961 C5          -8.1669   -23.0445    56.1524 C5            1 RES     
    1962 C5          -9.1742   -23.0629    57.3055 C5            1 RES     
    1963 H6          -5.6475   -31.6943    42.0872 H6            1 RES     
    1964 H6          -4.3334   -31.8192    43.3152 H6            1 RES     
    1965 H6          -5.9654   -32.4783    43.6582 H6            1 RES     
    1966 H6          -6.9707   -30.2198    43.6057 H6            1 RES     
    1967 H6          -5.6830   -30.2962    44.8721 H6            1 RES     
    1968 H6          -4.0908   -29.0838    43.3107 H6            1 RES     
    1969 H6          -5.3271   -29.1925    42.0338 H6            1 RES     
    1970 H6          -6.8757   -27.6529    43.2356 H6            1 RES     
    1971 H6          -5.3372   -26.8999    42.6823 H6            1 RES     
    1972 H6          -4.4745   -26.7744    45.0093 H6            1 RES     
    1973 H6          -5.8980   -27.6638    45.5620 H6            1 RES     
    1974 H6          -6.1526   -25.4689    46.3963 H6            1 RES     
    1975 H6          -7.4486   -25.7090    45.1890 H6            1 RES     
    1976 H6          -4.9748   -23.9151    44.9825 H6            1 RES     
    1977 H6          -6.1950   -23.9013    43.7174 H6            1 RES     
    1978 H6          -5.7911   -21.7709    45.1839 H6            1 RES     
    1979 H6          -6.4320   -22.5913    46.6060 H6            1 RES     
    1980 H6          -8.0955   -21.3400    44.2338 H6            1 RES     
    1981 H6          -8.7559   -22.2303    45.6197 H6            1 RES     
    1982 H6          -8.7079   -20.1739    47.1045 H6            1 RES     
    1983 H6          -9.8175   -20.1838    45.7570 H6            1 RES     
    1984 H6          -9.1869   -18.1807    44.8164 H6            1 RES     
    1985 H6          -6.9474   -17.1065    44.8486 H6            1 RES     
    1986 H6          -7.2030   -18.7637    44.3311 H6            1 RES     
    1987 H6          -6.2355   -19.7027    46.5175 H6            1 RES     
    1988 H6          -5.7235   -18.0185    46.8434 H6            1 RES     
    1989 H6          -4.4054   -18.1960    44.5599 H6            1 RES     
    1990 H6          -4.8757   -19.8746    44.4468 H6            1 RES     
    1991 H6          -2.5265   -19.6108    45.3124 H6            1 RES     
    1992 H6          -3.5614   -20.5168    46.4466 H6            1 RES     
    1993 H6          -3.8622   -18.6134    47.8753 H6            1 RES     
    1994 H6          -2.1387   -18.9062    47.7244 H6            1 RES     
    1995 H6          -3.2527   -16.8854    45.7078 H6            1 RES     
    1996 H6          -3.4783   -16.4604    47.4048 H6            1 RES     
    1997 H6          -1.1036   -16.5166    47.8709 H6            1 RES     
    1998 H6          -1.4939   -15.4390    46.4825 H6            1 RES     
    1999 H6          -0.7048   -17.2170    44.8845 H6            1 RES     
    2000 H6           0.5663   -16.6782    46.0470 H6            1 RES     
    2001 H6          -0.2560   -18.2579    46.3023 H6            1 RES     
    2002 H6         -10.3727   -16.4722    45.4447 H6            1 RES     
    2003 H6          -8.9762   -15.8126    46.1359 H6            1 RES     
    2004 H6          -9.4209   -15.6704    49.1237 H6            1 RES     
    2005 H6         -11.0524   -16.0148    49.7959 H6            1 RES     
    2006 H6          -9.6248   -18.1547    48.0351 H6            1 RES     
    2007 H6         -10.9227   -19.7606    49.1188 H6            1 RES     
    2008 H6         -11.5169   -18.5805    50.3263 H6            1 RES     
    2009 H6         -13.2138   -19.2693    48.7040 H6            1 RES     
    2010 H6         -12.9337   -17.4906    48.7172 H6            1 RES     
    2011 H6         -11.8792   -17.5693    46.5653 H6            1 RES     
    2012 H6         -11.6542   -19.3344    46.5946 H6            1 RES     
    2013 H6         -13.3660   -18.5415    44.9976 H6            1 RES     
    2014 H6         -14.0364   -19.5946    46.3032 H6            1 RES     
    2015 H6         -14.7537   -17.5271    47.5450 H6            1 RES     
    2016 H6         -14.2189   -16.4927    46.1694 H6            1 RES     
    2017 H6         -15.9170   -17.6522    44.7135 H6            1 RES     
    2018 H6         -16.2375   -18.8326    46.0521 H6            1 RES     
    2019 H6         -16.7936   -15.8442    46.1238 H6            1 RES     
    2020 H6         -16.9519   -16.9630    47.5574 H6            1 RES     
    2021 H6         -18.5259   -17.0782    44.9353 H6            1 RES     
    2022 H6         -19.1178   -16.5568    46.5680 H6            1 RES     
    2023 H6         -18.6332   -18.2765    46.3025 H6            1 RES     
    2024 H6          -9.0705   -17.9364    50.9754 H6            1 RES     
    2025 H6          -8.0320   -17.3714    49.6324 H6            1 RES     
    2026 H6          -7.5669   -19.5827    48.7784 H6            1 RES     
    2027 H6          -7.0424   -19.2759    50.4183 H6            1 RES     
    2028 H6          -9.2762   -21.2461    49.6636 H6            1 RES     
    2029 H6          -7.6144   -21.5449    50.2410 H6            1 RES     
    2030 H6          -9.8928   -20.2065    51.7731 H6            1 RES     
    2031 H6          -8.1852   -20.2533    52.3843 H6            1 RES     
    2032 H6          -8.1906   -22.6805    52.5721 H6            1 RES     
    2033 H6          -9.7569   -22.8114    51.7063 H6            1 RES     
    2034 H6         -10.1636   -23.1041    54.1112 H6            1 RES     
    2035 H6         -10.9755   -21.6647    53.4428 H6            1 RES     
    2036 H6         -10.1485   -21.0772    55.6199 H6            1 RES     
    2037 H6          -9.2349   -20.1622    54.4126 H6            1 RES     
    2038 H6          -7.2912   -21.7351    54.6561 H6            1 RES     
    2039 H6          -7.7464   -20.9235    56.1881 H6            1 RES     
    2040 H6          -8.4240   -23.8426    55.4261 H6            1 RES     
    2041 H6          -7.1642   -23.2800    56.5707 H6            1 RES     
    2042 H6          -8.9220   -22.2830    58.0554 H6            1 RES     
    2043 H6         -10.2079   -22.8995    56.9380 H6            1 RES     
    2044 H6          -9.1485   -24.0548    57.8038 H6            1 RES     
    2045 C0         -21.2091    -4.4068    51.6906 C0            1 RES     
    2046 C0         -21.7726    -6.1639    51.5634 C0            1 RES     
    2047 C0         -21.5727    -6.7874    52.7885 C0            1 RES     
    2048 S1         -21.7339    -8.4979    52.7991 S1            1 RES     
    2049 C0         -22.0932    -8.8493    51.2171 C0            1 RES     
    2050 C0         -22.1151    -7.4115    50.6237 C0            1 RES     
    2051 C0         -20.7105    -6.0048    53.6750 C0            1 RES     
    2052 C0         -20.1445    -5.1206    52.5758 C0            1 RES     
    2053 C0         -18.9654    -5.6132    52.1077 C0            1 RES     
    2054 C0         -18.4416    -6.6899    52.8190 C0            1 RES     
    2055 S1         -19.3833    -7.1371    54.2521 S1            1 RES     
    2056 H2         -22.2350    -7.3360    49.5497 H2            1 RES     
    2057 H2         -18.5524    -5.3530    51.1469 H2            1 RES     
    2058 N3         -21.6890   -12.7766    51.8224 N3            1 RES     
    2059 C0         -21.6680   -11.4368    51.8922 C0            1 RES     
    2060 C0         -22.2099   -10.5070    50.8853 C0            1 RES     
    2061 C0         -22.7700   -11.3094    49.7778 C0            1 RES     
    2062 N3         -23.3575   -10.7976    48.6500 N3            1 RES     
    2063 S1         -23.8193   -12.1513    47.7959 S1            1 RES     
    2064 N3         -23.3060   -13.4087    48.7369 N3            1 RES     
    2065 C0         -22.7551   -12.7741    49.7804 C0            1 RES     
    2066 C0         -22.2095   -13.5123    50.8019 C0            1 RES     
    2067 H4         -21.1936   -11.0706    52.7755 H4            1 RES     
    2068 C5         -21.6659    12.9718    60.2924 C5            1 RES     
    2069 C5         -21.8586    11.5808    59.6243 C5            1 RES     
    2070 C5         -21.3162    11.5027    58.1594 C5            1 RES     
    2071 C5         -21.1692    10.0584    57.4732 C5            1 RES     
    2072 C5         -22.4411     9.2469    56.9734 C5            1 RES     
    2073 C5         -22.3731     7.6551    56.4848 C5            1 RES     
    2074 C5         -21.7971     7.0520    55.0572 C5            1 RES     
    2075 C5         -22.0284     5.4670    54.3402 C5            1 RES     
    2076 C5         -21.2129     3.9743    54.4706 C5            1 RES     
    2077 C5         -21.3652     2.2684    53.9132 C5            1 RES     
    2078 C5         -20.9323     1.2573    52.5114 C5            1 RES     
    2079 C5         -20.9189     2.4542    51.3974 C5            1 RES     
    2080 C5         -22.1899     3.3971    51.1864 C5            1 RES     
    2081 C5         -21.9056     4.8049    50.5040 C5            1 RES     
    2082 C5         -23.1765     5.6597    50.1295 C5            1 RES     
    2083 C5         -24.2297     4.8900    49.3029 C5            1 RES     
    2084 C5         -23.6706     4.2305    48.0189 C5            1 RES     
    2085 C5         -24.1749     4.8038    46.6895 C5            1 RES     
    2086 C5         -23.8559     6.2783    46.4681 C5            1 RES     
    2087 C5         -20.8144    -0.6451    51.9936 C5            1 RES     
    2088 C0         -21.4569    -2.4843    52.1835 C0            1 RES     
    2089 C5         -22.9639    -2.2341    52.4472 C5            1 RES     
    2090 C5         -23.3284    -1.0120    53.4214 C5            1 RES     
    2091 C5         -23.2893    -1.3894    54.9122 C5            1 RES     
    2092 C5         -22.0206    -2.1015    55.4355 C5            1 RES     
    2093 C5         -20.6796    -1.3918    55.1479 C5            1 RES     
    2094 C5         -19.4965    -1.9165    55.9510 C5            1 RES     
    2095 C5         -19.3127    -3.4267    55.7975 C5            1 RES     
    2096 C5         -18.2883    -3.9456    56.8014 C5            1 RES     
    2097 C5         -18.3609    -5.4657    56.8515 C5            1 RES     
    2098 C5         -17.5263    -6.0544    57.9658 C5            1 RES     
    2099 C5         -24.6751    -0.3317    52.9992 C5            1 RES     
    2100 C5         -25.0654     1.1249    53.4604 C5            1 RES     
    2101 C5         -25.5491     1.4544    54.8989 C5            1 RES     
    2102 C5         -26.7201     0.5656    55.3375 C5            1 RES     
    2103 C5         -27.4319     1.0610    56.6166 C5            1 RES     
    2104 C5         -28.3380    -0.0304    57.2280 C5            1 RES     
    2105 C5         -29.4330    -0.6000    56.3020 C5            1 RES     
    2106 C5         -30.5519     0.3854    55.9162 C5            1 RES     
    2107 C5         -31.3794     0.9243    57.1000 C5            1 RES     
    2108 C5         -32.0882    -0.1743    57.8973 C5            1 RES     
    2109 H6         -20.5897    13.2532    60.3517 H6            1 RES     
    2110 H6         -22.2084    13.7814    59.7592 H6            1 RES     
    2111 H6         -22.0434    12.9568    61.3430 H6            1 RES     
    2112 H6         -21.3002    10.8621    60.2597 H6            1 RES     
    2113 H6         -22.9377    11.3275    59.6518 H6            1 RES     
    2114 H6         -21.8817    12.2207    57.5234 H6            1 RES     
    2115 H6         -20.2804    11.9112    58.2380 H6            1 RES     
    2116 H6         -20.6088     9.4406    58.2014 H6            1 RES     
    2117 H6         -20.5325    10.2188    56.5800 H6            1 RES     
    2118 H6         -22.9675     9.8785    56.2193 H6            1 RES     
    2119 H6         -23.1045     9.2652    57.8710 H6            1 RES     
    2120 H6         -23.4557     7.3995    56.4660 H6            1 RES     
    2121 H6         -21.9170     7.1068    57.3271 H6            1 RES     
    2122 H6         -22.3376     7.7399    54.3601 H6            1 RES     
    2123 H6         -20.7345     7.3597    54.9728 H6            1 RES     
    2124 H6         -21.9129     5.7537    53.2743 H6            1 RES     
    2125 H6         -23.1199     5.3140    54.4810 H6            1 RES     
    2126 H6         -20.1528     4.2537    54.2995 H6            1 RES     
    2127 H6         -21.3300     3.8581    55.5673 H6            1 RES     
    2128 H6         -22.4098     2.0489    54.1542 H6            1 RES     
    2129 H6         -20.7735     1.7893    54.7043 H6            1 RES     
    2130 H6         -19.8304     1.2988    52.6635 H6            1 RES     
    2131 H6         -20.4954     2.1392    50.4227 H6            1 RES     
    2132 H6         -20.1748     3.2006    51.7828 H6            1 RES     
    2133 H6         -22.6764     3.6558    52.1477 H6            1 RES     
    2134 H6         -22.9073     2.8226    50.5801 H6            1 RES     
    2135 H6         -21.2953     4.6705    49.5953 H6            1 RES     
    2136 H6         -21.2747     5.4509    51.1581 H6            1 RES     
    2137 H6         -22.8689     6.5735    49.5657 H6            1 RES     
    2138 H6         -23.6829     6.0239    51.0533 H6            1 RES     
    2139 H6         -24.6099     4.0934    49.9722 H6            1 RES     
    2140 H6         -25.1268     5.5116    49.0776 H6            1 RES     
    2141 H6         -22.5682     4.2108    48.0040 H6            1 RES     
    2142 H6         -23.9904     3.1676    48.0322 H6            1 RES     
    2143 H6         -25.2728     4.6560    46.6180 H6            1 RES     
    2144 H6         -23.6920     4.2160    45.8773 H6            1 RES     
    2145 H6         -22.7637     6.4629    46.5311 H6            1 RES     
    2146 H6         -24.2075     6.5663    45.4531 H6            1 RES     
    2147 H6         -24.3870     6.9089    47.2102 H6            1 RES     
    2148 H6         -19.7333    -0.8208    52.1969 H6            1 RES     
    2149 H6         -20.7688    -0.5357    50.8894 H6            1 RES     
    2150 H6         -23.3464    -2.0218    51.4304 H6            1 RES     
    2151 H6         -23.4382    -3.1652    52.8148 H6            1 RES     
    2152 H6         -22.6407    -0.1938    53.3168 H6            1 RES     
    2153 H6         -23.4194    -0.4625    55.4984 H6            1 RES     
    2154 H6         -24.1460    -2.0557    55.1274 H6            1 RES     
    2155 H6         -22.1489    -2.1874    56.5346 H6            1 RES     
    2156 H6         -21.9949    -3.1244    55.0047 H6            1 RES     
    2157 H6         -20.3958    -1.5671    54.1290 H6            1 RES     
    2158 H6         -20.7666    -0.3089    55.3317 H6            1 RES     
    2159 H6         -18.5662    -1.3960    55.6245 H6            1 RES     
    2160 H6         -19.6900    -1.6663    57.0127 H6            1 RES     
    2161 H6         -20.2719    -3.9168    56.0494 H6            1 RES     
    2162 H6         -19.0382    -3.7019    54.7534 H6            1 RES     
    2163 H6         -17.2645    -3.5977    56.5398 H6            1 RES     
    2164 H6         -18.5622    -3.5605    57.8058 H6            1 RES     
    2165 H6         -17.9841    -5.8548    55.8961 H6            1 RES     
    2166 H6         -19.4179    -5.7803    57.0234 H6            1 RES     
    2167 H6         -16.4563    -5.8247    57.7936 H6            1 RES     
    2168 H6         -17.6745    -7.1555    57.9742 H6            1 RES     
    2169 H6         -17.8587    -5.6409    58.9408 H6            1 RES     
    2170 H6         -25.5181    -1.0278    53.1572 H6            1 RES     
    2171 H6         -24.5636    -0.1838    51.9010 H6            1 RES     
    2172 H6         -24.2713     1.8433    53.1820 H6            1 RES     
    2173 H6         -25.9251     1.4084    52.8149 H6            1 RES     
    2174 H6         -24.7292     1.4022    55.6453 H6            1 RES     
    2175 H6         -25.8972     2.5157    54.8837 H6            1 RES     
    2176 H6         -26.3012    -0.4473    55.5058 H6            1 RES     
    2177 H6         -27.4789     0.5260    54.5274 H6            1 RES     
    2178 H6         -28.0131     1.9871    56.4001 H6            1 RES     
    2179 H6         -26.6771     1.3156    57.3923 H6            1 RES     
    2180 H6         -28.7953     0.3433    58.1685 H6            1 RES     
    2181 H6         -27.6749    -0.8766    57.5095 H6            1 RES     
    2182 H6         -29.8898    -1.4784    56.8017 H6            1 RES     
    2183 H6         -28.9638    -0.9907    55.3756 H6            1 RES     
    2184 H6         -30.1144     1.2426    55.3626 H6            1 RES     
    2185 H6         -31.2448    -0.1413    55.2229 H6            1 RES     
    2186 H6         -30.7371     1.5182    57.7821 H6            1 RES     
    2187 H6         -32.1569     1.6055    56.6910 H6            1 RES     
    2188 H6         -32.7532    -0.7687    57.2350 H6            1 RES     
    2189 H6         -31.3573    -0.8497    58.3870 H6            1 RES     
    2190 H6         -32.7053     0.2878    58.6963 H6            1 RES     
    2191 C0         -19.8419   -18.1337    50.6927 C0            1 RES     
    2192 C0         -19.7869   -17.3624    52.3730 C0            1 RES     
    2193 C0         -21.0815   -17.2797    52.8697 C0            1 RES     
    2194 S1         -21.2897   -16.3132    54.2748 S1            1 RES     
    2195 C0         -19.7548   -15.7584    54.5775 C0            1 RES     
    2196 C0         -18.9846   -16.4648    53.4253 C0            1 RES     
    2197 C0         -22.0889   -17.5089    51.8333 C0            1 RES     
    2198 C0         -21.1437   -17.2788    50.6653 C0            1 RES     
    2199 C0         -21.2045   -15.9905    50.2309 C0            1 RES     
    2200 C0         -22.2079   -15.2123    50.8031 C0            1 RES     
    2201 S1         -23.2624   -16.0973    51.9189 S1            1 RES     
    2202 H2         -17.9397   -16.2017    53.3129 H2            1 RES     
    2203 H2         -20.4259   -15.5212    49.6521 H2            1 RES     
    2204 N3         -21.0439   -13.2223    57.3811 N3            1 RES     
    2205 C0         -20.9155   -14.0799    56.3572 C0            1 RES     
    2206 C0         -19.6549   -14.6696    55.8722 C0            1 RES     
    2207 C0         -18.5539   -14.1406    56.7042 C0            1 RES     
    2208 N3         -17.2280   -14.4532    56.5515 N3            1 RES     
    2209 S1         -16.4781   -13.6013    57.7710 S1            1 RES     
    2210 N3         -17.7167   -12.8002    58.5153 N3            1 RES     
    2211 C0         -18.7805   -13.2060    57.8091 C0            1 RES     
    2212 C0         -20.0272   -12.7402    58.1477 C0            1 RES     
    2213 H4         -21.8444   -14.3099    55.8843 H4            1 RES     
    2214 C5         -25.0192   -32.5699    38.8181 C5            1 RES     
    2215 C5         -24.5421   -31.5785    39.9172 C5            1 RES     
    2216 C5         -23.3950   -30.6229    39.4515 C5            1 RES     
    2217 C5         -23.0299   -29.3591    40.3723 C5            1 RES     
    2218 C5         -22.2379   -29.5331    41.7394 C5            1 RES     
    2219 C5         -22.0492   -28.3024    42.8469 C5            1 RES     
    2220 C5         -21.0268   -27.0057    42.7638 C5            1 RES     
    2221 C5         -20.5199   -25.9003    44.0291 C5            1 RES     
    2222 C5         -21.1532   -24.4475    44.6605 C5            1 RES     
    2223 C5         -20.8396   -23.2702    45.9869 C5            1 RES     
    2224 C5         -19.8512   -21.8230    46.3085 C5            1 RES     
    2225 C5         -18.6492   -22.1627    45.2533 C5            1 RES     
    2226 C5         -17.8619   -23.5499    45.3206 C5            1 RES     
    2227 C5         -17.1229   -23.9955    43.9850 C5            1 RES     
    2228 C5         -16.1979   -25.2673    44.0992 C5            1 RES     
    2229 C5         -15.1760   -25.1988    45.2551 C5            1 RES     
    2230 C5         -14.2885   -23.9306    45.2430 C5            1 RES     
    2231 C5         -12.7969   -24.1513    44.9658 C5            1 RES     
    2232 C5         -12.4856   -24.7839    43.6139 C5            1 RES     
    2233 C5         -19.6997   -20.3512    47.6169 C5            1 RES     
    2234 C0         -19.9214   -19.6979    49.4488 C0            1 RES     
    2235 C5         -19.5917   -20.9825    50.2515 C5            1 RES     
    2236 C5         -20.1784   -22.3598    49.6735 C5            1 RES     
    2237 C5         -21.6243   -22.6397    50.1182 C5            1 RES     
    2238 C5         -22.6645   -21.5140    49.9150 C5            1 RES     
    2239 C5         -22.7696   -20.9406    48.4849 C5            1 RES     
    2240 C5         -24.0094   -20.0940    48.2281 C5            1 RES     
    2241 C5         -24.1589   -18.9582    49.2408 C5            1 RES     
    2242 C5         -25.5267   -18.2972    49.1053 C5            1 RES     
    2243 C5         -25.7744   -17.4048    50.3139 C5            1 RES     
    2244 C5         -27.1871   -16.8698    50.3658 C5            1 RES     
    2245 C5         -19.2085   -23.5558    49.9630 C5            1 RES     
    2246 C5         -19.2777   -24.9114    49.1604 C5            1 RES     
    2247 C5         -20.3839   -25.9761    49.3942 C5            1 RES     
    2248 C5         -20.5052   -26.3754    50.8705 C5            1 RES     
    2249 C5         -21.3585   -27.6425    51.1040 C5            1 RES     
    2250 C5         -21.7637   -27.7959    52.5866 C5            1 RES     
    2251 C5         -20.6052   -27.8459    53.6047 C5            1 RES     
    2252 C5         -19.7043   -29.0923    53.5213 C5            1 RES     
    2253 C5         -20.4219   -30.4311    53.7839 C5            1 RES     
    2254 C5         -21.0699   -30.5131    55.1689 C5            1 RES     
    2255 H6         -25.4144   -32.0338    37.9251 H6            1 RES     
    2256 H6         -24.2134   -33.2573    38.4829 H6            1 RES     
    2257 H6         -25.8567   -33.2026    39.1987 H6            1 RES     
    2258 H6         -25.4343   -30.9751    40.1856 H6            1 RES     
    2259 H6         -24.2218   -32.1662    40.8012 H6            1 RES     
    2260 H6         -22.4998   -31.2305    39.1880 H6            1 RES     
    2261 H6         -23.7746   -30.2017    38.4900 H6            1 RES     
    2262 H6         -23.9933   -28.8520    40.5741 H6            1 RES     
    2263 H6         -22.4080   -28.6987    39.7352 H6            1 RES     
    2264 H6         -21.2607   -30.0162    41.5023 H6            1 RES     
    2265 H6         -22.8277   -30.3263    42.2582 H6            1 RES     
    2266 H6         -21.6852   -28.8740    43.7293 H6            1 RES     
    2267 H6         -23.0704   -27.9521    43.0763 H6            1 RES     
    2268 H6         -20.0887   -27.5549    42.4998 H6            1 RES     
    2269 H6         -21.2805   -26.4429    41.8420 H6            1 RES     
    2270 H6         -19.5346   -25.6128    43.6069 H6            1 RES     
    2271 H6         -20.2848   -26.6012    44.8586 H6            1 RES     
    2272 H6         -21.3302   -23.8369    43.7512 H6            1 RES     
    2273 H6         -22.1408   -24.8551    44.9577 H6            1 RES     
    2274 H6         -20.7236   -23.9336    46.8494 H6            1 RES     
    2275 H6         -21.8515   -22.8523    46.0709 H6            1 RES     
    2276 H6         -20.3770   -21.1517    45.5930 H6            1 RES     
    2277 H6         -17.9474   -21.3178    45.1036 H6            1 RES     
    2278 H6         -19.1577   -22.2665    44.2583 H6            1 RES     
    2279 H6         -18.5373   -24.3974    45.5516 H6            1 RES     
    2280 H6         -17.1334   -23.4558    46.1407 H6            1 RES     
    2281 H6         -16.5214   -23.1613    43.5869 H6            1 RES     
    2282 H6         -17.8541   -24.2116    43.1714 H6            1 RES     
    2283 H6         -15.6504   -25.4283    43.1390 H6            1 RES     
    2284 H6         -16.8159   -26.1814    44.2582 H6            1 RES     
    2285 H6         -15.7775   -25.2001    46.1852 H6            1 RES     
    2286 H6         -14.5563   -26.1224    45.3266 H6            1 RES     
    2287 H6         -14.6694   -23.1591    44.5534 H6            1 RES     
    2288 H6         -14.3460   -23.4825    46.2570 H6            1 RES     
    2289 H6         -12.3629   -24.7823    45.7695 H6            1 RES     
    2290 H6         -12.3070   -23.1530    45.0057 H6            1 RES     
    2291 H6         -12.9044   -24.1770    42.7848 H6            1 RES     
    2292 H6         -11.3811   -24.8351    43.4947 H6            1 RES     
    2293 H6         -12.8874   -25.8166    43.5636 H6            1 RES     
    2294 H6         -20.2977   -19.5756    47.0862 H6            1 RES     
    2295 H6         -18.6807   -19.9855    47.3696 H6            1 RES     
    2296 H6         -18.4859   -21.0063    50.2095 H6            1 RES     
    2297 H6         -19.9015   -20.8528    51.3071 H6            1 RES     
    2298 H6         -20.2040   -22.3685    48.6000 H6            1 RES     
    2299 H6         -21.9804   -23.5285    49.5678 H6            1 RES     
    2300 H6         -21.6179   -22.8831    51.1975 H6            1 RES     
    2301 H6         -23.6458   -21.9493    50.1966 H6            1 RES     
    2302 H6         -22.4290   -20.6927    50.6239 H6            1 RES     
    2303 H6         -21.9565   -20.2633    48.3127 H6            1 RES     
    2304 H6         -22.7464   -21.7514    47.7393 H6            1 RES     
    2305 H6         -23.9611   -19.6676    47.1991 H6            1 RES     
    2306 H6         -24.8829   -20.7725    48.2911 H6            1 RES     
    2307 H6         -24.1237   -19.3963    50.2560 H6            1 RES     
    2308 H6         -23.3341   -18.2150    49.1473 H6            1 RES     
    2309 H6         -25.5972   -17.7216    48.1559 H6            1 RES     
    2310 H6         -26.2986   -19.0950    49.1098 H6            1 RES     
    2311 H6         -25.0849   -16.5522    50.2527 H6            1 RES     
    2312 H6         -25.6043   -17.9914    51.2480 H6            1 RES     
    2313 H6         -27.3742   -16.2206    49.4879 H6            1 RES     
    2314 H6         -27.3068   -16.2785    51.2989 H6            1 RES     
    2315 H6         -27.9068   -17.7147    50.3826 H6            1 RES     
    2316 H6         -19.1588   -23.7500    51.0493 H6            1 RES     
    2317 H6         -18.2128   -23.1715    49.6451 H6            1 RES     
    2318 H6         -19.1956   -24.7207    48.0736 H6            1 RES     
    2319 H6         -18.3342   -25.4421    49.4139 H6            1 RES     
    2320 H6         -21.3717   -25.6556    49.0026 H6            1 RES     
    2321 H6         -20.0875   -26.8790    48.8070 H6            1 RES     
    2322 H6         -20.9607   -25.5107    51.3944 H6            1 RES     
    2323 H6         -19.4940   -26.5729    51.2853 H6            1 RES     
    2324 H6         -20.8137   -28.5457    50.7437 H6            1 RES     
    2325 H6         -22.3043   -27.5710    50.5240 H6            1 RES     
    2326 H6         -22.4130   -28.6885    52.7091 H6            1 RES     
    2327 H6         -22.3855   -26.9110    52.8420 H6            1 RES     
    2328 H6         -21.0352   -27.7860    54.6252 H6            1 RES     
    2329 H6         -19.9756   -26.9398    53.4894 H6            1 RES     
    2330 H6         -19.2209   -29.1324    52.5226 H6            1 RES     
    2331 H6         -18.8971   -28.9796    54.2789 H6            1 RES     
    2332 H6         -21.1908   -30.6167    53.0061 H6            1 RES     
    2333 H6         -19.6664   -31.2434    53.7114 H6            1 RES     
    2334 H6         -20.3113   -30.3499    55.9640 H6            1 RES     
    2335 H6         -21.8825   -29.7658    55.2767 H6            1 RES     
    2336 H6         -21.5188   -31.5190    55.3087 H6            1 RES     
    2337 C0         -21.4586    -8.1624    60.1401 C0            1 RES     
    2338 C0         -22.9132    -9.2264    59.7239 C0            1 RES     
    2339 C0         -22.8991   -10.3451    60.5472 C0            1 RES     
    2340 S1         -23.9771   -11.6117    60.1167 S1            1 RES     
    2341 C0         -24.7190   -11.0238    58.7532 C0            1 RES     
    2342 C0         -24.0352    -9.6298    58.6584 C0            1 RES     
    2343 C0         -21.6190   -10.5100    61.2370 C0            1 RES     
    2344 C0         -20.8429    -9.5823    60.3164 C0            1 RES     
    2345 C0         -20.2280   -10.2789    59.3221 C0            1 RES     
    2346 C0         -20.2830   -11.6656    59.4399 C0            1 RES     
    2347 S1         -21.0701   -12.2352    60.9219 S1            1 RES     
    2348 H2         -24.2635    -9.0407    57.7784 H2            1 RES     
    2349 H2         -19.9005    -9.8315    58.3979 H2            1 RES     
    2350 N3         -26.4688   -14.5321    57.9891 N3            1 RES     
    2351 C0         -25.6978   -13.5282    58.4343 C0            1 RES     
    2352 C0         -25.7864   -12.1167    58.0197 C0            1 RES     
    2353 C0         -26.8663   -12.0024    57.0172 C0            1 RES     
    2354 N3         -27.2433   -10.8429    56.3910 N3            1 RES     
    2355 S1         -28.5078   -11.3143    55.4142 S1            1 RES     
    2356 N3         -28.6346   -12.9392    55.6856 N3            1 RES     
    2357 C0         -27.6656   -13.1517    56.5860 C0            1 RES     
    2358 C0         -27.4654   -14.4220    57.0680 C0            1 RES     
    2359 H4         -24.9657   -13.8449    59.1436 H4            1 RES     
    2360 C5         -10.8195     1.7604    72.9683 C5            1 RES     
    2361 C5         -11.8550     1.0583    72.0445 C5            1 RES     
    2362 C5         -11.6902     1.4090    70.5293 C5            1 RES     
    2363 C5         -12.4807     0.5235    69.4479 C5            1 RES     
    2364 C5         -14.0495     0.6749    69.2427 C5            1 RES     
    2365 C5         -14.9546    -0.3786    68.3218 C5            1 RES     
    2366 C5         -15.0475    -0.4685    66.6735 C5            1 RES     
    2367 C5         -16.2299    -1.2830    65.6643 C5            1 RES     
    2368 C5         -16.3703    -2.8644    65.0403 C5            1 RES     
    2369 C5         -17.5297    -3.8789    64.1072 C5            1 RES     
    2370 C5         -17.9614    -4.2351    62.4156 C5            1 RES     
    2371 C5         -17.4657    -2.8131    61.7785 C5            1 RES     
    2372 C5         -18.0149    -1.4231    62.3400 C5            1 RES     
    2373 C5         -17.1118    -0.1482    62.0443 C5            1 RES     
    2374 C5         -17.7360     1.2458    62.4360 C5            1 RES     
    2375 C5         -19.1555     1.4784    61.8737 C5            1 RES     
    2376 C5         -19.2702     1.2882    60.3418 C5            1 RES     
    2377 C5         -19.5776     2.5486    59.5248 C5            1 RES     
    2378 C5         -18.5353     3.6553    59.6421 C5            1 RES     
    2379 C5         -19.0026    -5.5397    61.3597 C5            1 RES     
    2380 C0         -20.5164    -6.7737    61.2282 C0            1 RES     
    2381 C5         -21.5662    -6.0303    62.0934 C5            1 RES     
    2382 C5         -21.0302    -5.3499    63.4444 C5            1 RES     
    2383 C5         -20.9685    -6.3239    64.6335 C5            1 RES     
    2384 C5         -20.2431    -7.6718    64.4155 C5            1 RES     
    2385 C5         -18.8005    -7.5831    63.8714 C5            1 RES     
    2386 C5         -17.9964    -8.8715    63.9865 C5            1 RES     
    2387 C5         -18.7079   -10.0615    63.3418 C5            1 RES     
    2388 C5         -17.9979   -11.3645    63.6945 C5            1 RES     
    2389 C5         -18.8917   -12.5394    63.3215 C5            1 RES     
    2390 C5         -18.3576   -13.8620    63.8217 C5            1 RES     
    2391 C5         -21.8208    -4.0372    63.7711 C5            1 RES     
    2392 C5         -21.2582    -2.9346    64.7481 C5            1 RES     
    2393 C5         -21.2399    -3.1036    66.2918 C5            1 RES     
    2394 C5         -22.6186    -3.4740    66.8535 C5            1 RES     
    2395 C5         -22.7202    -3.3421    68.3899 C5            1 RES     
    2396 C5         -23.9671    -4.0642    68.9463 C5            1 RES     
    2397 C5         -25.3257    -3.6130    68.3704 C5            1 RES     
    2398 C5         -25.7552    -2.1793    68.7338 C5            1 RES     
    2399 C5         -25.9425    -1.9200    70.2418 C5            1 RES     
    2400 C5         -27.0024    -2.8175    70.8867 C5            1 RES     
    2401 H6          -9.7750     1.4780    72.7031 H6            1 RES     
    2402 H6         -10.8993     2.8680    72.9364 H6            1 RES     
    2403 H6         -10.9676     1.4485    74.0300 H6            1 RES     
    2404 H6         -11.6954    -0.0308    72.1872 H6            1 RES     
    2405 H6         -12.8724     1.3253    72.3955 H6            1 RES     
    2406 H6         -11.8561     2.5011    70.3885 H6            1 RES     
    2407 H6         -10.6052     1.2350    70.3333 H6            1 RES     
    2408 H6         -12.2488    -0.5292    69.7012 H6            1 RES     
    2409 H6         -12.0151     0.7642    68.4712 H6            1 RES     
    2410 H6         -14.2503     1.7348    68.9581 H6            1 RES     
    2411 H6         -14.4372     0.5832    70.2855 H6            1 RES     
    2412 H6         -15.9836    -0.0912    68.6325 H6            1 RES     
    2413 H6         -14.7510    -1.3817    68.7345 H6            1 RES     
    2414 H6         -15.2194     0.6162    66.4608 H6            1 RES     
    2415 H6         -14.0227    -0.6604    66.2944 H6            1 RES     
    2416 H6         -16.1476    -0.6368    64.7658 H6            1 RES     
    2417 H6         -17.1836    -0.9827    66.1490 H6            1 RES     
    2418 H6         -15.3771    -3.0388    64.5775 H6            1 RES     
    2419 H6         -16.3545    -3.3907    66.0164 H6            1 RES     
    2420 H6         -18.4659    -3.6958    64.6434 H6            1 RES     
    2421 H6         -17.1851    -4.8652    64.4448 H6            1 RES     
    2422 H6         -17.0141    -4.7570    62.1527 H6            1 RES     
    2423 H6         -17.4508    -2.8124    60.6702 H6            1 RES     
    2424 H6         -16.3825    -2.7313    62.0600 H6            1 RES     
    2425 H6         -18.1147    -1.4339    63.4434 H6            1 RES     
    2426 H6         -19.0165    -1.2845    61.9043 H6            1 RES     
    2427 H6         -16.8336    -0.1186    60.9776 H6            1 RES     
    2428 H6         -16.1336    -0.2140    62.5753 H6            1 RES     
    2429 H6         -17.0687     2.0727    62.0918 H6            1 RES     
    2430 H6         -17.7997     1.3427    63.5447 H6            1 RES     
    2431 H6         -19.8001     0.7280    62.3720 H6            1 RES     
    2432 H6         -19.5798     2.4593    62.1899 H6            1 RES     
    2433 H6         -18.3833     0.7926    59.9135 H6            1 RES     
    2434 H6         -20.1185     0.5952    60.1617 H6            1 RES     
    2435 H6         -20.5677     2.9501    59.8264 H6            1 RES     
    2436 H6         -19.6393     2.2382    58.4580 H6            1 RES     
    2437 H6         -17.5308     3.2887    59.3460 H6            1 RES     
    2438 H6         -18.8256     4.4862    58.9623 H6            1 RES     
    2439 H6         -18.5005     4.0514    60.6776 H6            1 RES     
    2440 H6         -18.1845    -6.2444    61.0860 H6            1 RES     
    2441 H6         -19.0819    -4.9838    60.4015 H6            1 RES     
    2442 H6         -21.9240    -5.2440    61.4013 H6            1 RES     
    2443 H6         -22.4107    -6.7099    62.3214 H6            1 RES     
    2444 H6         -20.0319    -4.9694    63.3359 H6            1 RES     
    2445 H6         -20.4669    -5.8046    65.4692 H6            1 RES     
    2446 H6         -22.0029    -6.5604    64.9466 H6            1 RES     
    2447 H6         -20.2192    -8.1705    65.4068 H6            1 RES     
    2448 H6         -20.8581    -8.2889    63.7274 H6            1 RES     
    2449 H6         -18.8294    -7.3922    62.8168 H6            1 RES     
    2450 H6         -18.2419    -6.7824    64.3821 H6            1 RES     
    2451 H6         -17.0004    -8.7316    63.5054 H6            1 RES     
    2452 H6         -17.8454    -9.0629    65.0672 H6            1 RES     
    2453 H6         -19.7226   -10.1318    63.7768 H6            1 RES     
    2454 H6         -18.8037    -9.9330    62.2392 H6            1 RES     
    2455 H6         -17.0109   -11.4292    63.1854 H6            1 RES     
    2456 H6         -17.8471   -11.3897    64.7940 H6            1 RES     
    2457 H6         -18.9529   -12.5843    62.2259 H6            1 RES     
    2458 H6         -19.9018   -12.3941    63.7736 H6            1 RES     
    2459 H6         -17.3841   -14.0791    63.3397 H6            1 RES     
    2460 H6         -19.0877   -14.6585    63.5624 H6            1 RES     
    2461 H6         -18.2436   -13.8263    64.9252 H6            1 RES     
    2462 H6         -22.8698    -4.2777    64.0200 H6            1 RES     
    2463 H6         -21.8239    -3.4832    62.8050 H6            1 RES     
    2464 H6         -20.2561    -2.6017    64.4177 H6            1 RES     
    2465 H6         -21.9067    -2.0471    64.5812 H6            1 RES     
    2466 H6         -20.4796    -3.8381    66.6299 H6            1 RES     
    2467 H6         -20.9384    -2.1159    66.7177 H6            1 RES     
    2468 H6         -22.8109    -4.5232    66.5503 H6            1 RES     
    2469 H6         -23.3902    -2.8097    66.4098 H6            1 RES     
    2470 H6         -22.7163    -2.2674    68.6854 H6            1 RES     
    2471 H6         -21.8382    -3.8217    68.8676 H6            1 RES     
    2472 H6         -23.9827    -3.9889    70.0542 H6            1 RES     
    2473 H6         -23.8495    -5.1417    68.7009 H6            1 RES     
    2474 H6         -26.1055    -4.3179    68.7238 H6            1 RES     
    2475 H6         -25.3076    -3.7129    67.2656 H6            1 RES     
    2476 H6         -25.0115    -1.4584    68.3338 H6            1 RES     
    2477 H6         -26.7243    -1.9757    68.2262 H6            1 RES     
    2478 H6         -24.9794    -2.0439    70.7780 H6            1 RES     
    2479 H6         -26.2655    -0.8639    70.3691 H6            1 RES     
    2480 H6         -27.9813    -2.6927    70.3763 H6            1 RES     
    2481 H6         -26.7014    -3.8844    70.8496 H6            1 RES     
    2482 H6         -27.1222    -2.5400    71.9551 H6            1 RES     
    2483 C0         -28.1108   -19.0209    54.7424 C0            1 RES     
    2484 C0         -27.3688   -19.1908    56.4282 C0            1 RES     
    2485 C0         -28.3007   -18.7754    57.3709 C0            1 RES     
    2486 S1         -27.7097   -18.5547    58.9689 S1            1 RES     
    2487 C0         -26.1000   -18.9347    58.8278 C0            1 RES     
    2488 C0         -26.0473   -19.3133    57.3200 C0            1 RES     
    2489 C0         -29.4167   -18.0484    56.7646 C0            1 RES     
    2490 C0         -28.7045   -17.7674    55.4514 C0            1 RES     
    2491 C0         -28.1097   -16.5435    55.4676 C0            1 RES     
    2492 C0         -28.4062   -15.7481    56.5718 C0            1 RES     
    2493 S1         -29.5790   -16.4681    57.6882 S1            1 RES     
    2494 H2         -25.0661   -19.5198    56.9097 H2            1 RES     
    2495 H2         -27.3065   -16.2644    54.8054 H2            1 RES     
    2496 N3         -25.2975   -17.6350    62.5184 N3            1 RES     
    2497 C0         -25.8322   -17.9049    61.3177 C0            1 RES     
    2498 C0         -25.2073   -18.7057    60.2499 C0            1 RES     
    2499 C0         -23.8814   -19.1495    60.7288 C0            1 RES     
    2500 N3         -22.9963   -19.9108    60.0106 N3            1 RES     
    2501 S1         -21.7160   -20.1202    61.0558 S1            1 RES     
    2502 N3         -22.1642   -19.2795    62.4058 N3            1 RES     
    2503 C0         -23.3712   -18.8121    62.0598 C0            1 RES     
    2504 C0         -24.0770   -18.0490    62.9573 C0            1 RES     
    2505 H4         -26.7942   -17.4638    61.1787 H4            1 RES     
    2506 C5         -42.2454   -22.7075    41.9816 C5            1 RES     
    2507 C5         -41.1300   -22.6341    43.0629 C5            1 RES     
    2508 C5         -39.7381   -22.1890    42.5056 C5            1 RES     
    2509 C5         -38.5917   -21.7746    43.5508 C5            1 RES     
    2510 C5         -37.8221   -22.8675    44.4107 C5            1 RES     
    2511 C5         -36.8082   -22.4839    45.6764 C5            1 RES     
    2512 C5         -35.2678   -21.8879    45.6023 C5            1 RES     
    2513 C5         -34.0381   -21.8127    46.8522 C5            1 RES     
    2514 C5         -33.6488   -20.6814    48.0682 C5            1 RES     
    2515 C5         -32.5274   -20.4919    49.4648 C5            1 RES     
    2516 C5         -30.8664   -19.9435    49.8040 C5            1 RES     
    2517 C5         -30.2422   -20.2700    48.3284 C5            1 RES     
    2518 C5         -30.3573   -21.7289    47.6900 C5            1 RES     
    2519 C5         -30.2150   -21.8089    46.1084 C5            1 RES     
    2520 C5         -30.1462   -23.2594    45.4940 C5            1 RES     
    2521 C5         -29.0881   -24.1711    46.1532 C5            1 RES     
    2522 C5         -27.6623   -23.5693    46.1835 C5            1 RES     
    2523 C5         -26.6109   -24.2769    45.3209 C5            1 RES     
    2524 C5         -26.9241   -24.3065    43.8289 C5            1 RES     
    2525 C5         -29.7170   -19.4449    51.3309 C5            1 RES     
    2526 C0         -29.2422   -19.6520    53.2186 C0            1 RES     
    2527 C5         -29.5562   -21.1555    53.4283 C5            1 RES     
    2528 C5         -30.8916   -21.7129    52.7344 C5            1 RES     
    2529 C5         -32.1563   -21.4901    53.5814 C5            1 RES     
    2530 C5         -32.4144   -20.0631    54.1175 C5            1 RES     
    2531 C5         -32.4118   -18.9342    53.0637 C5            1 RES     
    2532 C5         -32.9964   -17.6126    53.5451 C5            1 RES     
    2533 C5         -32.3264   -17.1115    54.8250 C5            1 RES     
    2534 C5         -33.0989   -15.9320    55.4066 C5            1 RES     
    2535 C5         -32.6127   -15.6643    56.8245 C5            1 RES     
    2536 C5         -33.4617   -14.6465    57.5512 C5            1 RES     
    2537 C5         -30.7159   -23.2020    52.2799 C5            1 RES     
    2538 C5         -31.6525   -23.8713    51.2022 C5            1 RES     
    2539 C5         -33.1086   -24.3164    51.5079 C5            1 RES     
    2540 C5         -33.1923   -25.2302    52.7374 C5            1 RES     
    2541 C5         -34.5541   -25.9447    52.8898 C5            1 RES     
    2542 C5         -34.7323   -26.5442    54.3022 C5            1 RES     
    2543 C5         -33.6506   -27.5473    54.7547 C5            1 RES     
    2544 C5         -33.6190   -28.8795    53.9825 C5            1 RES     
    2545 C5         -34.9051   -29.7227    54.0892 C5            1 RES     
    2546 C5         -35.2576   -30.1160    55.5265 C5            1 RES     
    2547 H6         -42.4142   -21.7183    41.4981 H6            1 RES     
    2548 H6         -42.0221   -23.4501    41.1862 H6            1 RES     
    2549 H6         -43.2190   -22.9999    42.4433 H6            1 RES     
    2550 H6         -41.4811   -21.8891    43.8070 H6            1 RES     
    2551 H6         -41.0524   -23.6265    43.5513 H6            1 RES     
    2552 H6         -39.3860   -22.9408    41.7635 H6            1 RES     
    2553 H6         -39.9688   -21.2657    41.9223 H6            1 RES     
    2554 H6         -39.0651   -21.0436    44.2346 H6            1 RES     
    2555 H6         -37.8200   -21.2513    42.9514 H6            1 RES     
    2556 H6         -37.3298   -23.5702    43.6978 H6            1 RES     
    2557 H6         -38.6603   -23.4558    44.8553 H6            1 RES     
    2558 H6         -36.6863   -23.4824    46.1519 H6            1 RES     
    2559 H6         -37.4113   -21.8620    46.3601 H6            1 RES     
    2560 H6         -34.8483   -22.6130    44.8609 H6            1 RES     
    2561 H6         -35.3109   -20.9276    45.0485 H6            1 RES     
    2562 H6         -33.1418   -21.8362    46.1982 H6            1 RES     
    2563 H6         -34.1015   -22.8315    47.2911 H6            1 RES     
    2564 H6         -33.6008   -19.7232    47.5110 H6            1 RES     
    2565 H6         -34.6337   -20.6950    48.5779 H6            1 RES     
    2566 H6         -32.6620   -21.4435    49.9880 H6            1 RES     
    2567 H6         -33.1087   -19.7566    50.0367 H6            1 RES     
    2568 H6         -31.0384   -18.8701    49.5648 H6            1 RES     
    2569 H6         -29.2247   -19.8551    48.1827 H6            1 RES     
    2570 H6         -30.8746   -19.6842    47.6100 H6            1 RES     
    2571 H6         -31.3416   -22.1937    47.8969 H6            1 RES     
    2572 H6         -29.5786   -22.3418    48.1699 H6            1 RES     
    2573 H6         -29.3252   -21.2475    45.7779 H6            1 RES     
    2574 H6         -31.0624   -21.2928    45.5997 H6            1 RES     
    2575 H6         -29.9422   -23.1999    44.3974 H6            1 RES     
    2576 H6         -31.1320   -23.7695    45.5965 H6            1 RES     
    2577 H6         -29.4310   -24.3199    47.1959 H6            1 RES     
    2578 H6         -29.0825   -25.1963    45.7163 H6            1 RES     
    2579 H6         -27.6564   -22.4933    45.9426 H6            1 RES     
    2580 H6         -27.2982   -23.6454    47.2295 H6            1 RES     
    2581 H6         -26.4773   -25.3176    45.6836 H6            1 RES     
    2582 H6         -25.6510   -23.7329    45.4657 H6            1 RES     
    2583 H6         -27.0627   -23.2801    43.4311 H6            1 RES     
    2584 H6         -26.0695   -24.7813    43.2988 H6            1 RES     
    2585 H6         -27.8327   -24.9116    43.6321 H6            1 RES     
    2586 H6         -29.8606   -18.3404    51.3119 H6            1 RES     
    2587 H6         -28.7217   -19.5000    50.8414 H6            1 RES     
    2588 H6         -28.6730   -21.6438    52.9737 H6            1 RES     
    2589 H6         -29.5680   -21.3868    54.5116 H6            1 RES     
    2590 H6         -31.0894   -21.2312    51.7952 H6            1 RES     
    2591 H6         -33.0281   -21.7809    52.9689 H6            1 RES     
    2592 H6         -32.1129   -22.1623    54.4591 H6            1 RES     
    2593 H6         -33.4120   -20.0941    54.6029 H6            1 RES     
    2594 H6         -31.6532   -19.8421    54.8948 H6            1 RES     
    2595 H6         -31.4000   -18.6889    52.8079 H6            1 RES     
    2596 H6         -32.9618   -19.2449    52.1610 H6            1 RES     
    2597 H6         -32.8855   -16.8443    52.7449 H6            1 RES     
    2598 H6         -34.0757   -17.7836    53.7267 H6            1 RES     
    2599 H6         -32.3777   -17.9197    55.5786 H6            1 RES     
    2600 H6         -31.2559   -16.8550    54.6534 H6            1 RES     
    2601 H6         -32.9897   -15.0303    54.7642 H6            1 RES     
    2602 H6         -34.1708   -16.2149    55.4642 H6            1 RES     
    2603 H6         -31.5868   -15.2771    56.7636 H6            1 RES     
    2604 H6         -32.6492   -16.6118    57.4132 H6            1 RES     
    2605 H6         -33.3954   -13.6677    57.0366 H6            1 RES     
    2606 H6         -33.0820   -14.5475    58.5907 H6            1 RES     
    2607 H6         -34.5151   -14.9946    57.5863 H6            1 RES     
    2608 H6         -30.6087   -23.8582    53.1621 H6            1 RES     
    2609 H6         -29.7406   -23.2010    51.7423 H6            1 RES     
    2610 H6         -31.6541   -23.2759    50.2696 H6            1 RES     
    2611 H6         -31.1355   -24.8142    50.9201 H6            1 RES     
    2612 H6         -33.8006   -23.4563    51.6232 H6            1 RES     
    2613 H6         -33.4612   -24.8900    50.6165 H6            1 RES     
    2614 H6         -33.0010   -24.5879    53.6210 H6            1 RES     
    2615 H6         -32.4093   -26.0151    52.6697 H6            1 RES     
    2616 H6         -34.6675   -26.7290    52.1061 H6            1 RES     
    2617 H6         -35.3800   -25.2134    52.7508 H6            1 RES     
    2618 H6         -35.7377   -27.0074    54.3904 H6            1 RES     
    2619 H6         -34.7087   -25.6934    55.0167 H6            1 RES     
    2620 H6         -33.8049   -27.7642    55.8313 H6            1 RES     
    2621 H6         -32.6526   -27.0679    54.6839 H6            1 RES     
    2622 H6         -33.4065   -28.6804    52.9110 H6            1 RES     
    2623 H6         -32.7758   -29.4850    54.3833 H6            1 RES     
    2624 H6         -35.7606   -29.1821    53.6350 H6            1 RES     
    2625 H6         -34.7499   -30.6572    53.5074 H6            1 RES     
    2626 H6         -34.4201   -30.6773    55.9932 H6            1 RES     
    2627 H6         -35.4898   -29.2226    56.1416 H6            1 RES     
    2628 H6         -36.1593   -30.7638    55.5225 H6            1 RES     
    2629 C0         -22.3891   -14.7345    66.5823 C0            1 RES     
    2630 C0         -24.2336   -14.7363    66.4448 C0            1 RES     
    2631 C0         -24.7101   -15.9804    66.8383 C0            1 RES     
    2632 S1         -26.3617   -16.3001    66.4891 S1            1 RES     
    2633 C0         -26.8604   -14.9082    65.7347 C0            1 RES     
    2634 C0         -25.5445   -14.0817    65.8045 C0            1 RES     
    2635 C0         -23.6454   -16.9809    66.9227 C0            1 RES     
    2636 C0         -22.6449   -16.1914    66.0941 C0            1 RES     
    2637 C0         -22.6883   -16.5640    64.7860 C0            1 RES     
    2638 C0         -23.4830   -17.6728    64.5051 C0            1 RES     
    2639 S1         -24.2039   -18.4278    65.9371 S1            1 RES     
    2640 H2         -25.5455   -13.1306    65.2858 H2            1 RES     
    2641 H2         -22.3211   -15.9492    63.9806 H2            1 RES     
    2642 N3         -30.3566   -16.5300    64.6860 N3            1 RES     
    2643 C0         -29.0991   -16.2860    65.0854 C0            1 RES     
    2644 C0         -28.4556   -14.9626    65.1653 C0            1 RES     
    2645 C0         -29.4350   -13.9510    64.7162 C0            1 RES     
    2646 N3         -29.2006   -12.6024    64.6431 N3            1 RES     
    2647 S1         -30.6514   -11.9772    64.1140 S1            1 RES     
    2648 N3         -31.6121   -13.3082    63.9255 N3            1 RES     
    2649 C0         -30.7940   -14.3020    64.2972 C0            1 RES     
    2650 C0         -31.2573   -15.5947    64.2765 C0            1 RES     
    2651 H4         -28.5630   -17.1714    65.3461 H4            1 RES     
    2652 C5          -6.1424   -17.4015    76.8365 C5            1 RES     
    2653 C5          -7.5255   -17.0808    76.2018 C5            1 RES     
    2654 C5          -7.4395   -16.2068    74.9077 C5            1 RES     
    2655 C5          -8.7494   -16.0672    73.9894 C5            1 RES     
    2656 C5          -9.9796   -15.1651    74.4353 C5            1 RES     
    2657 C5         -11.4505   -15.1771    73.6520 C5            1 RES     
    2658 C5         -11.8405   -14.4736    72.2075 C5            1 RES     
    2659 C5         -13.4195   -14.1376    71.5193 C5            1 RES     
    2660 C5         -14.5109   -15.0307    70.5594 C5            1 RES     
    2661 C5         -16.1697   -14.8946    69.8711 C5            1 RES     
    2662 C5         -16.9910   -14.2297    68.4365 C5            1 RES     
    2663 C5         -15.9001   -13.0573    68.1064 C5            1 RES     
    2664 C5         -15.4882   -11.9809    69.2113 C5            1 RES     
    2665 C5         -14.0914   -11.2548    68.9879 C5            1 RES     
    2666 C5         -13.7657   -10.0667    69.9721 C5            1 RES     
    2667 C5         -14.8862    -9.0086    70.0717 C5            1 RES     
    2668 C5         -15.3310    -8.4253    68.7086 C5            1 RES     
    2669 C5         -15.0145    -6.9442    68.4710 C5            1 RES     
    2670 C5         -13.5310    -6.5941    68.5106 C5            1 RES     
    2671 C5         -18.7338   -14.3173    67.5114 C5            1 RES     
    2672 C0         -20.6753   -14.5520    67.5972 C0            1 RES     
    2673 C5         -20.9819   -13.8935    68.9667 C5            1 RES     
    2674 C5         -19.9503   -14.2004    70.1571 C5            1 RES     
    2675 C5         -20.2491   -15.5153    70.8976 C5            1 RES     
    2676 C5         -20.4387   -16.7893    70.0423 C5            1 RES     
    2677 C5         -19.2986   -17.1155    69.0530 C5            1 RES     
    2678 C5         -19.3375   -18.5259    68.4794 C5            1 RES     
    2679 C5         -20.6817   -18.8525    67.8278 C5            1 RES     
    2680 C5         -20.7675   -20.3383    67.4943 C5            1 RES     
    2681 C5         -22.2086   -20.6935    67.1541 C5            1 RES     
    2682 C5         -22.4253   -22.1825    67.0102 C5            1 RES     
    2683 C5         -19.8160   -12.9734    71.1221 C5            1 RES     
    2684 C5         -18.5887   -12.7968    72.0964 C5            1 RES     
    2685 C5         -18.4198   -13.6227    73.4008 C5            1 RES     
    2686 C5         -19.6611   -13.5521    74.2996 C5            1 RES     
    2687 C5         -19.4246   -14.0873    75.7299 C5            1 RES     
    2688 C5         -20.7540   -14.3467    76.4724 C5            1 RES     
    2689 C5         -21.7058   -13.1390    76.6011 C5            1 RES     
    2690 C5         -21.2037   -11.9935    77.4997 C5            1 RES     
    2691 C5         -20.9711   -12.3789    78.9741 C5            1 RES     
    2692 C5         -22.2308   -12.8969    79.6739 C5            1 RES     
    2693 H6          -5.4884   -17.9650    76.1325 H6            1 RES     
    2694 H6          -5.5988   -16.4889    77.1616 H6            1 RES     
    2695 H6          -6.2660   -18.0511    77.7361 H6            1 RES     
    2696 H6          -7.9759   -18.0635    75.9501 H6            1 RES     
    2697 H6          -8.1521   -16.5794    76.9669 H6            1 RES     
    2698 H6          -6.9922   -15.2199    75.1642 H6            1 RES     
    2699 H6          -6.6812   -16.7345    74.2811 H6            1 RES     
    2700 H6          -9.1028   -17.1026    73.8189 H6            1 RES     
    2701 H6          -8.3923   -15.6511    73.0260 H6            1 RES     
    2702 H6          -9.6018   -14.1239    74.5687 H6            1 RES     
    2703 H6         -10.1799   -15.5288    75.4716 H6            1 RES     
    2704 H6         -12.0817   -14.6368    74.3919 H6            1 RES     
    2705 H6         -11.7740   -16.2322    73.6471 H6            1 RES     
    2706 H6         -11.4138   -13.4578    72.4008 H6            1 RES     
    2707 H6         -11.1707   -14.9073    71.4368 H6            1 RES     
    2708 H6         -13.1382   -13.2710    70.8856 H6            1 RES     
    2709 H6         -13.9542   -13.6978    72.3883 H6            1 RES     
    2710 H6         -13.8706   -15.3996    69.7317 H6            1 RES     
    2711 H6         -14.6331   -15.8817    71.2600 H6            1 RES     
    2712 H6         -16.7468   -14.5767    70.7448 H6            1 RES     
    2713 H6         -16.3809   -15.9655    69.7525 H6            1 RES     
    2714 H6         -16.5487   -14.9380    67.7005 H6            1 RES     
    2715 H6         -16.0653   -12.5707    67.1243 H6            1 RES     
    2716 H6         -14.9249   -13.5970    67.9761 H6            1 RES     
    2717 H6         -15.3987   -12.4357    70.2177 H6            1 RES     
    2718 H6         -16.2993   -11.2369    69.2398 H6            1 RES     
    2719 H6         -14.0188   -10.8804    67.9531 H6            1 RES     
    2720 H6         -13.2438   -11.9741    69.0734 H6            1 RES     
    2721 H6         -12.8175    -9.5640    69.6626 H6            1 RES     
    2722 H6         -13.5862   -10.4559    71.0012 H6            1 RES     
    2723 H6         -15.7487    -9.5302    70.5310 H6            1 RES     
    2724 H6         -14.6383    -8.1973    70.7945 H6            1 RES     
    2725 H6         -14.9501    -9.0129    67.8569 H6            1 RES     
    2726 H6         -16.4369    -8.5108    68.6624 H6            1 RES     
    2727 H6         -15.5522    -6.3280    69.2217 H6            1 RES     
    2728 H6         -15.4080    -6.6847    67.4629 H6            1 RES     
    2729 H6         -12.9612    -7.1918    67.7695 H6            1 RES     
    2730 H6         -13.4165    -5.5162    68.2620 H6            1 RES     
    2731 H6         -13.1169    -6.7610    69.5260 H6            1 RES     
    2732 H6         -18.5002   -15.1063    66.7605 H6            1 RES     
    2733 H6         -18.6441   -13.4232    66.8588 H6            1 RES     
    2734 H6         -20.9493   -12.8151    68.7193 H6            1 RES     
    2735 H6         -22.0118   -14.1515    69.2827 H6            1 RES     
    2736 H6         -18.9414   -14.2966    69.8019 H6            1 RES     
    2737 H6         -19.4176   -15.7036    71.5996 H6            1 RES     
    2738 H6         -21.1749   -15.3819    71.4886 H6            1 RES     
    2739 H6         -20.5367   -17.6291    70.7613 H6            1 RES     
    2740 H6         -21.3935   -16.6928    69.4840 H6            1 RES     
    2741 H6         -19.3855   -16.4853    68.1900 H6            1 RES     
    2742 H6         -18.3167   -16.9651    69.5296 H6            1 RES     
    2743 H6         -18.5238   -18.6429    67.7264 H6            1 RES     
    2744 H6         -19.1471   -19.2221    69.3199 H6            1 RES     
    2745 H6         -21.4796   -18.6525    68.5674 H6            1 RES     
    2746 H6         -20.8655   -18.2201    66.9291 H6            1 RES     
    2747 H6         -20.0789   -20.5984    66.6602 H6            1 RES     
    2748 H6         -20.4820   -20.9133    68.3998 H6            1 RES     
    2749 H6         -22.4591   -20.2145    66.1981 H6            1 RES     
    2750 H6         -22.8805   -20.3351    67.9701 H6            1 RES     
    2751 H6         -21.8277   -22.5674    66.1605 H6            1 RES     
    2752 H6         -23.5046   -22.3655    66.8201 H6            1 RES     
    2753 H6         -22.1353   -22.6955    67.9509 H6            1 RES     
    2754 H6         -20.7661   -12.8082    71.6608 H6            1 RES     
    2755 H6         -19.6664   -12.1109    70.4338 H6            1 RES     
    2756 H6         -17.6387   -12.8331    71.5304 H6            1 RES     
    2757 H6         -18.6532   -11.7446    72.4495 H6            1 RES     
    2758 H6         -18.1518   -14.6812    73.2018 H6            1 RES     
    2759 H6         -17.5578   -13.1754    73.9528 H6            1 RES     
    2760 H6         -20.4484   -14.1501    73.7972 H6            1 RES     
    2761 H6         -19.9942   -12.4963    74.3891 H6            1 RES     
    2762 H6         -18.7783   -13.3828    76.3029 H6            1 RES     
    2763 H6         -18.8935   -15.0630    75.6833 H6            1 RES     
    2764 H6         -20.5473   -14.7735    77.4765 H6            1 RES     
    2765 H6         -21.2945   -15.1293    75.8976 H6            1 RES     
    2766 H6         -22.6768   -13.5011    76.9962 H6            1 RES     
    2767 H6         -21.9236   -12.7338    75.5915 H6            1 RES     
    2768 H6         -20.2608   -11.5823    77.0817 H6            1 RES     
    2769 H6         -21.9637   -11.1812    77.4718 H6            1 RES     
    2770 H6         -20.1672   -13.1392    79.0528 H6            1 RES     
    2771 H6         -20.6291   -11.4697    79.5148 H6            1 RES     
    2772 H6         -23.0429   -12.1405    79.6240 H6            1 RES     
    2773 H6         -22.5822   -13.8449    79.2177 H6            1 RES     
    2774 H6         -22.0034   -13.1025    80.7411 H6            1 RES     
    2775 C0         -34.7065   -17.8602    61.1229 C0            1 RES     
    2776 C0         -33.9243   -19.0696    62.2834 C0            1 RES     
    2777 C0         -34.3040   -18.7532    63.5817 C0            1 RES     
    2778 S1         -33.4427   -19.5525    64.8351 S1            1 RES     
    2779 C0         -32.3613   -20.4969    64.0020 C0            1 RES     
    2780 C0         -32.7699   -20.1451    62.5429 C0            1 RES     
    2781 C0         -34.9098   -17.4243    63.6742 C0            1 RES     
    2782 C0         -34.3829   -16.9362    62.3345 C0            1 RES     
    2783 C0         -33.2161   -16.2522    62.4854 C0            1 RES     
    2784 C0         -32.8403   -15.9922    63.8011 C0            1 RES     
    2785 S1         -34.0182   -16.5315    65.0102 S1            1 RES     
    2786 H2         -32.1488   -20.5570    61.7566 H2            1 RES     
    2787 H2         -32.5116   -16.0951    61.6851 H2            1 RES     
    2788 N3         -30.3935   -21.4787    67.3363 N3            1 RES     
    2789 C0         -31.1725   -20.9193    66.3978 C0            1 RES     
    2790 C0         -31.2772   -21.3448    64.9907 C0            1 RES     
    2791 C0         -30.3635   -22.4891    64.7908 C0            1 RES     
    2792 N3         -30.1777   -23.1541    63.6066 N3            1 RES     
    2793 S1         -29.0806   -24.3473    63.9912 S1            1 RES     
    2794 N3         -28.7642   -24.0942    65.5931 N3            1 RES     
    2795 C0         -29.5463   -23.0430    65.8729 C0            1 RES     
    2796 C0         -29.5558   -22.5355    67.1490 C0            1 RES     
    2797 H4         -31.7359   -20.0888    66.7614 H4            1 RES     
    2798 C5         -50.3406    -8.8192    54.0481 C5            1 RES     
    2799 C5         -49.2155    -9.7352    54.6083 C5            1 RES     
    2800 C5         -47.9213    -9.7554    53.7304 C5            1 RES     
    2801 C5         -46.5877   -10.4032    54.3469 C5            1 RES     
    2802 C5         -46.4270   -11.9771    54.4997 C5            1 RES     
    2803 C5         -45.1834   -12.6885    55.3507 C5            1 RES     
    2804 C5         -43.6068   -12.8714    54.8875 C5            1 RES     
    2805 C5         -42.3603   -13.9114    55.5544 C5            1 RES     
    2806 C5         -41.2203   -13.7421    56.8121 C5            1 RES     
    2807 C5         -39.9754   -14.7104    57.6819 C5            1 RES     
    2808 C5         -38.2604   -15.1673    57.5242 C5            1 RES     
    2809 C5         -38.1683   -15.0417    55.8966 C5            1 RES     
    2810 C5         -39.1733   -15.8440    54.9505 C5            1 RES     
    2811 C5         -39.3550   -15.2663    53.4803 C5            1 RES     
    2812 C5         -40.2014   -16.1541    52.4894 C5            1 RES     
    2813 C5         -39.7369   -17.6249    52.4112 C5            1 RES     
    2814 C5         -38.2339   -17.7991    52.0843 C5            1 RES     
    2815 C5         -37.9058   -18.4315    50.7268 C5            1 RES     
    2816 C5         -38.4173   -17.6532    49.5196 C5            1 RES     
    2817 C5         -36.8005   -15.9650    58.5888 C5            1 RES     
    2818 C0         -36.2247   -17.1751    60.0156 C0            1 RES     
    2819 C5         -37.2810   -18.3014    59.8778 C5            1 RES     
    2820 C5         -38.7918   -17.8377    59.5993 C5            1 RES     
    2821 C5         -39.5654   -17.4819    60.8805 C5            1 RES     
    2822 C5         -38.8993   -16.4940    61.8658 C5            1 RES     
    2823 C5         -38.4404   -15.1469    61.2659 C5            1 RES     
    2824 C5         -38.1081   -14.0728    62.2933 C5            1 RES     
    2825 C5         -37.0779   -14.5469    63.3190 C5            1 RES     
    2826 C5         -36.9618   -13.5450    64.4630 C5            1 RES     
    2827 C5         -36.1889   -14.1813    65.6103 C5            1 RES     
    2828 C5         -36.2016   -13.3361    66.8634 C5            1 RES     
    2829 C5         -39.5466   -18.8738    58.6984 C5            1 RES     
    2830 C5         -40.8554   -18.5027    57.9008 C5            1 RES     
    2831 C5         -42.2423   -18.3424    58.5810 C5            1 RES     
    2832 C5         -42.6200   -19.5641    59.4286 C5            1 RES     
    2833 C5         -44.1038   -19.5872    59.8599 C5            1 RES     
    2834 C5         -44.3551   -20.6035    60.9957 C5            1 RES     
    2835 C5         -43.9551   -22.0641    60.6997 C5            1 RES     
    2836 C5         -44.7916   -22.7731    59.6182 C5            1 RES     
    2837 C5         -46.2922   -22.9097    59.9435 C5            1 RES     
    2838 C5         -46.5676   -23.6993    61.2263 C5            1 RES     
    2839 H6         -50.0076    -7.7588    53.9737 H6            1 RES     
    2840 H6         -50.6973    -9.1431    53.0472 H6            1 RES     
    2841 H6         -51.2238    -8.8222    54.7312 H6            1 RES     
    2842 H6         -48.9700    -9.3302    55.6122 H6            1 RES     
    2843 H6         -49.6238   -10.7600    54.7201 H6            1 RES     
    2844 H6         -48.1695   -10.1669    52.7259 H6            1 RES     
    2845 H6         -47.6916    -8.6746    53.5717 H6            1 RES     
    2846 H6         -46.4595    -9.9283    55.3389 H6            1 RES     
    2847 H6         -45.7635   -10.0698    53.6849 H6            1 RES     
    2848 H6         -46.5288   -12.4253    53.4832 H6            1 RES     
    2849 H6         -47.3664   -12.2630    55.0308 H6            1 RES     
    2850 H6         -45.5610   -13.7318    55.4327 H6            1 RES     
    2851 H6         -45.2215   -12.2412    56.3589 H6            1 RES     
    2852 H6         -43.7850   -13.2922    53.8664 H6            1 RES     
    2853 H6         -43.1985   -11.8578    54.6960 H6            1 RES     
    2854 H6         -41.7461   -14.0349    54.6384 H6            1 RES     
    2855 H6         -42.9065   -14.8724    55.6671 H6            1 RES     
    2856 H6         -40.7393   -12.7688    56.5831 H6            1 RES     
    2857 H6         -41.9505   -13.5442    57.6230 H6            1 RES     
    2858 H6         -40.5289   -15.6251    57.9150 H6            1 RES     
    2859 H6         -39.9509   -14.1348    58.6166 H6            1 RES     
    2860 H6         -37.8443   -14.1485    57.6910 H6            1 RES     
    2861 H6         -37.1307   -15.1029    55.5116 H6            1 RES     
    2862 H6         -38.4753   -13.9865    55.6694 H6            1 RES     
    2863 H6         -40.2017   -15.8635    55.3625 H6            1 RES     
    2864 H6         -38.8001   -16.8789    54.9051 H6            1 RES     
    2865 H6         -38.3701   -15.0749    53.0226 H6            1 RES     
    2866 H6         -39.8427   -14.2638    53.4974 H6            1 RES     
    2867 H6         -40.1777   -15.7104    51.4647 H6            1 RES     
    2868 H6         -41.2729   -16.1618    52.7968 H6            1 RES     
    2869 H6         -39.9321   -18.0529    53.4140 H6            1 RES     
    2870 H6         -40.3706   -18.2322    51.7245 H6            1 RES     
    2871 H6         -37.6713   -16.8561    52.1841 H6            1 RES     
    2872 H6         -37.8110   -18.4841    52.8486 H6            1 RES     
    2873 H6         -38.3153   -19.4628    50.6928 H6            1 RES     
    2874 H6         -36.7971   -18.4959    50.6570 H6            1 RES     
    2875 H6         -38.0253   -16.6152    49.5203 H6            1 RES     
    2876 H6         -38.0675   -18.1650    48.5963 H6            1 RES     
    2877 H6         -39.5263   -17.6359    49.5067 H6            1 RES     
    2878 H6         -36.3086   -15.0323    58.9481 H6            1 RES     
    2879 H6         -36.0966   -16.2299    57.7717 H6            1 RES     
    2880 H6         -36.9031   -18.8699    59.0065 H6            1 RES     
    2881 H6         -37.2451   -18.9579    60.7693 H6            1 RES     
    2882 H6         -38.8370   -16.9574    58.9857 H6            1 RES     
    2883 H6         -40.5368   -17.0513    60.5795 H6            1 RES     
    2884 H6         -39.7618   -18.4150    61.4416 H6            1 RES     
    2885 H6         -39.6534   -16.2933    62.6550 H6            1 RES     
    2886 H6         -38.0304   -17.0034    62.3327 H6            1 RES     
    2887 H6         -37.5191   -15.2890    60.7364 H6            1 RES     
    2888 H6         -39.2066   -14.7450    60.5838 H6            1 RES     
    2889 H6         -37.7200   -13.1673    61.7714 H6            1 RES     
    2890 H6         -39.0553   -13.8101    62.8043 H6            1 RES     
    2891 H6         -37.4469   -15.4892    63.7661 H6            1 RES     
    2892 H6         -36.0889   -14.7436    62.8452 H6            1 RES     
    2893 H6         -36.4758   -12.6050    64.1198 H6            1 RES     
    2894 H6         -37.9847   -13.3177    64.8291 H6            1 RES     
    2895 H6         -35.1462   -14.3056    65.2888 H6            1 RES     
    2896 H6         -36.6494   -15.1653    65.8659 H6            1 RES     
    2897 H6         -35.6874   -12.3738    66.6713 H6            1 RES     
    2898 H6         -35.6699   -13.8887    67.6675 H6            1 RES     
    2899 H6         -37.2492   -13.1578    67.1839 H6            1 RES     
    2900 H6         -39.6813   -19.8246    59.2444 H6            1 RES     
    2901 H6         -38.8358   -19.0648    57.8627 H6            1 RES     
    2902 H6         -40.6762   -17.6235    57.2535 H6            1 RES     
    2903 H6         -41.0010   -19.3406    57.1848 H6            1 RES     
    2904 H6         -42.3122   -17.4177    59.1909 H6            1 RES     
    2905 H6         -42.9912   -18.2376    57.7587 H6            1 RES     
    2906 H6         -41.9660   -19.5407    60.3240 H6            1 RES     
    2907 H6         -42.4264   -20.4915    58.8490 H6            1 RES     
    2908 H6         -44.7569   -19.8000    58.9822 H6            1 RES     
    2909 H6         -44.3953   -18.5907    60.2578 H6            1 RES     
    2910 H6         -45.4189   -20.5597    61.3115 H6            1 RES     
    2911 H6         -43.7497   -20.2684    61.8652 H6            1 RES     
    2912 H6         -44.0287   -22.6435    61.6425 H6            1 RES     
    2913 H6         -42.8856   -22.0998    60.4068 H6            1 RES     
    2914 H6         -44.6795   -22.2355    58.6532 H6            1 RES     
    2915 H6         -44.3742   -23.7955    59.4815 H6            1 RES     
    2916 H6         -46.7642   -21.9086    60.0189 H6            1 RES     
    2917 H6         -46.7768   -23.4480    59.1001 H6            1 RES     
    2918 H6         -46.1199   -24.7141    61.1626 H6            1 RES     
    2919 H6         -46.1634   -23.1738    62.1156 H6            1 RES     
    2920 H6         -47.6638   -23.8042    61.3683 H6            1 RES     
    2921 C0         -25.7587   -22.3089    70.6853 C0            1 RES     
    2922 C0         -27.2883   -21.4346    71.2486 C0            1 RES     
    2923 C0         -28.3039   -22.3686    71.4089 C0            1 RES     
    2924 S1         -29.8860   -21.7331    71.6210 S1            1 RES     
    2925 C0         -29.6428   -20.0927    71.5480 C0            1 RES     
    2926 C0         -28.0987   -20.0609    71.3624 C0            1 RES     
    2927 C0         -27.9754   -23.6560    70.7955 C0            1 RES     
    2928 C0         -26.8535   -23.1144    69.9245 C0            1 RES     
    2929 C0         -27.3053   -22.8042    68.6788 C0            1 RES     
    2930 C0         -28.6139   -23.1926    68.4024 C0            1 RES     
    2931 S1         -29.3915   -24.0991    69.7116 S1            1 RES     
    2932 H2         -27.6555   -19.0886    71.1835 H2            1 RES     
    2933 H2         -26.7938   -22.1293    68.0122 H2            1 RES     
    2934 N3         -33.5654   -19.3465    71.4482 N3            1 RES     
    2935 C0         -32.3390   -19.8893    71.4045 C0            1 RES     
    2936 C0         -31.0671   -19.1776    71.6227 C0            1 RES     
    2937 C0         -31.3783   -17.7570    71.8861 C0            1 RES     
    2938 N3         -30.4511   -16.7770    72.1286 N3            1 RES     
    2939 S1         -31.3743   -15.4139    72.3837 S1            1 RES     
    2940 N3         -32.9269   -15.9431    72.1855 N3            1 RES     
    2941 C0         -32.7500   -17.2441    71.9189 C0            1 RES     
    2942 C0         -33.8482   -18.0378    71.6950 C0            1 RES     
    2943 H4         -32.3502   -20.9319    71.1766 H4            1 RES     
    2944 C5         -12.3235   -36.1204    72.9104 C5            1 RES     
    2945 C5         -13.3770   -34.9775    72.9583 C5            1 RES     
    2946 C5         -13.0299   -33.7592    72.0411 C5            1 RES     
    2947 C5         -14.1696   -32.6638    71.7591 C5            1 RES     
    2948 C5         -14.6029   -31.6155    72.8725 C5            1 RES     
    2949 C5         -15.9364   -30.6271    72.7248 C5            1 RES     
    2950 C5         -16.0967   -29.2645    71.8021 C5            1 RES     
    2951 C5         -17.3104   -27.9994    71.8801 C5            1 RES     
    2952 C5         -18.8508   -27.7869    71.1784 C5            1 RES     
    2953 C5         -20.2405   -26.6422    71.2276 C5            1 RES     
    2954 C5         -20.7728   -25.1237    70.4625 C5            1 RES     
    2955 C5         -19.2849   -24.5450    70.1090 C5            1 RES     
    2956 C5         -18.1747   -24.3792    71.2443 C5            1 RES     
    2957 C5         -16.6672   -24.3309    70.7408 C5            1 RES     
    2958 C5         -15.5849   -23.9862    71.8345 C5            1 RES     
    2959 C5         -15.8976   -22.7110    72.6474 C5            1 RES     
    2960 C5         -16.1561   -21.4541    71.7817 C5            1 RES     
    2961 C5         -15.1147   -20.3339    71.8875 C5            1 RES     
    2962 C5         -13.7027   -20.7339    71.4738 C5            1 RES     
    2963 C5         -22.3931   -24.0110    70.2687 C5            1 RES     
    2964 C0         -24.0951   -23.3747    70.9967 C0            1 RES     
    2965 C5         -23.7609   -23.3347    72.5099 C5            1 RES     
    2966 C5         -22.8976   -24.5586    73.0864 C5            1 RES     
    2967 C5         -23.7517   -25.7805    73.4658 C5            1 RES     
    2968 C5         -24.7499   -26.3095    72.4102 C5            1 RES     
    2969 C5         -24.1582   -26.6276    71.0196 C5            1 RES     
    2970 C5         -25.0637   -27.4547    70.1164 C5            1 RES     
    2971 C5         -26.4471   -26.8259    69.9458 C5            1 RES     
    2972 C5         -27.3942   -27.7978    69.2497 C5            1 RES     
    2973 C5         -28.8226   -27.2870    69.3813 C5            1 RES     
    2974 C5         -29.8480   -28.2877    68.8999 C5            1 RES     
    2975 C5         -21.9530   -24.0906    74.2455 C5            1 RES     
    2976 C5         -20.6965   -24.9280    74.7000 C5            1 RES     
    2977 C5         -20.8072   -26.2259    75.5456 C5            1 RES     
    2978 C5         -21.6377   -26.0222    76.8193 C5            1 RES     
    2979 C5         -21.5117   -27.1795    77.8357 C5            1 RES     
    2980 C5         -22.6223   -27.1245    78.9079 C5            1 RES     
    2981 C5         -22.7096   -25.8201    79.7277 C5            1 RES     
    2982 C5         -21.5204   -25.5485    80.6679 C5            1 RES     
    2983 C5         -21.3077   -26.6069    81.7683 C5            1 RES     
    2984 C5         -22.5114   -26.7653    82.7015 C5            1 RES     
    2985 H6         -12.2146   -36.5356    71.8824 H6            1 RES     
    2986 H6         -11.3215   -35.7938    73.2617 H6            1 RES     
    2987 H6         -12.6402   -36.9719    73.5593 H6            1 RES     
    2988 H6         -14.3300   -35.4326    72.6166 H6            1 RES     
    2989 H6         -13.4882   -34.6501    74.0118 H6            1 RES     
    2990 H6         -12.0764   -33.3016    72.3895 H6            1 RES     
    2991 H6         -12.8036   -34.2269    71.0532 H6            1 RES     
    2992 H6         -15.0595   -33.2388    71.4375 H6            1 RES     
    2993 H6         -13.8018   -32.0690    70.8990 H6            1 RES     
    2994 H6         -13.6958   -31.0303    73.1539 H6            1 RES     
    2995 H6         -14.8018   -32.2711    73.7538 H6            1 RES     
    2996 H6         -16.0338   -30.2561    73.7692 H6            1 RES     
    2997 H6         -16.7863   -31.3043    72.5323 H6            1 RES     
    2998 H6         -15.1541   -28.7473    72.1108 H6            1 RES     
    2999 H6         -15.9136   -29.5558    70.7474 H6            1 RES     
    3000 H6         -16.7020   -27.1666    71.4703 H6            1 RES     
    3001 H6         -17.3640   -27.8067    72.9731 H6            1 RES     
    3002 H6         -18.6650   -27.9893    70.1034 H6            1 RES     
    3003 H6         -19.3099   -28.7075    71.5927 H6            1 RES     
    3004 H6         -20.3956   -26.5279    72.3048 H6            1 RES     
    3005 H6         -21.0256   -27.3309    70.8886 H6            1 RES     
    3006 H6         -20.9222   -25.5439    69.4427 H6            1 RES     
    3007 H6         -19.3076   -23.6563    69.4469 H6            1 RES     
    3008 H6         -18.8085   -25.3385    69.4744 H6            1 RES     
    3009 H6         -18.1923   -25.2204    71.9652 H6            1 RES     
    3010 H6         -18.4202   -23.4537    71.7879 H6            1 RES     
    3011 H6         -16.5664   -23.6113    69.9113 H6            1 RES     
    3012 H6         -16.3599   -25.3038    70.2913 H6            1 RES     
    3013 H6         -14.5814   -23.8757    71.3564 H6            1 RES     
    3014 H6         -15.4889   -24.8262    72.5610 H6            1 RES     
    3015 H6         -16.8174   -22.9407    73.2202 H6            1 RES     
    3016 H6         -15.1295   -22.5094    73.4294 H6            1 RES     
    3017 H6         -16.3072   -21.7018    70.7180 H6            1 RES     
    3018 H6         -17.1141   -21.0117    72.1266 H6            1 RES     
    3019 H6         -15.0920   -19.9499    72.9288 H6            1 RES     
    3020 H6         -15.4539   -19.5099    71.2210 H6            1 RES     
    3021 H6         -13.6875   -21.1220    70.4344 H6            1 RES     
    3022 H6         -13.0516   -19.8339    71.5271 H6            1 RES     
    3023 H6         -13.2941   -21.4981    72.1662 H6            1 RES     
    3024 H6         -22.7600   -24.3954    69.2897 H6            1 RES     
    3025 H6         -21.9289   -23.0638    69.9215 H6            1 RES     
    3026 H6         -23.1762   -22.3987    72.5949 H6            1 RES     
    3027 H6         -24.6944   -23.2214    73.0955 H6            1 RES     
    3028 H6         -22.1839   -24.9212    72.3706 H6            1 RES     
    3029 H6         -23.0644   -26.6065    73.7207 H6            1 RES     
    3030 H6         -24.3391   -25.5304    74.3694 H6            1 RES     
    3031 H6         -25.1801   -27.2403    72.8349 H6            1 RES     
    3032 H6         -25.5657   -25.5645    72.3008 H6            1 RES     
    3033 H6         -24.0182   -25.7145    70.4755 H6            1 RES     
    3034 H6         -23.1964   -27.1558    71.1189 H6            1 RES     
    3035 H6         -24.5847   -27.5706    69.1164 H6            1 RES     
    3036 H6         -25.1593   -28.4549    70.5831 H6            1 RES     
    3037 H6         -26.8693   -26.6463    70.9525 H6            1 RES     
    3038 H6         -26.3908   -25.8524    69.4069 H6            1 RES     
    3039 H6         -27.1097   -27.9339    68.1828 H6            1 RES     
    3040 H6         -27.3345   -28.7745    69.7738 H6            1 RES     
    3041 H6         -28.9151   -26.3781    68.7717 H6            1 RES     
    3042 H6         -29.0418   -27.0736    70.4547 H6            1 RES     
    3043 H6         -29.7096   -28.4740    67.8166 H6            1 RES     
    3044 H6         -30.8615   -27.8692    69.0796 H6            1 RES     
    3045 H6         -29.7447   -29.2337    69.4714 H6            1 RES     
    3046 H6         -22.5510   -23.7816    75.1213 H6            1 RES     
    3047 H6         -21.4631   -23.1785    73.8352 H6            1 RES     
    3048 H6         -20.0315   -25.1243    73.8378 H6            1 RES     
    3049 H6         -20.1093   -24.2364    75.3425 H6            1 RES     
    3050 H6         -21.2069   -27.0809    74.9614 H6            1 RES     
    3051 H6         -19.7667   -26.5034    75.8426 H6            1 RES     
    3052 H6         -22.6927   -25.9173    76.4942 H6            1 RES     
    3053 H6         -21.3102   -25.0921    77.3304 H6            1 RES     
    3054 H6         -20.5016   -27.1705    78.3065 H6            1 RES     
    3055 H6         -21.6263   -28.1537    77.3123 H6            1 RES     
    3056 H6         -22.5290   -27.9947    79.5914 H6            1 RES     
    3057 H6         -23.5897   -27.2402    78.3734 H6            1 RES     
    3058 H6         -23.6399   -25.8491    80.3307 H6            1 RES     
    3059 H6         -22.8248   -24.9594    79.0371 H6            1 RES     
    3060 H6         -20.5895   -25.4587    80.0695 H6            1 RES     
    3061 H6         -21.6954   -24.5673    81.1628 H6            1 RES     
    3062 H6         -21.0598   -27.5895    81.3170 H6            1 RES     
    3063 H6         -20.4377   -26.2897    82.3835 H6            1 RES     
    3064 H6         -22.7634   -25.7949    83.1801 H6            1 RES     
    3065 H6         -23.3970   -27.1461    82.1529 H6            1 RES     
    3066 H6         -22.2685   -27.5003    83.4975 H6            1 RES     
    3067 C0         -38.4268   -16.8784    69.5346 C0            1 RES     
    3068 C0         -38.2722   -18.6822    69.9136 C0            1 RES     
    3069 C0         -38.1987   -18.8450    71.2912 C0            1 RES     
    3070 S1         -37.7373   -20.4054    71.8425 S1            1 RES     
    3071 C0         -37.5112   -21.2488    70.4308 C0            1 RES     
    3072 C0         -37.8839   -20.1456    69.3994 C0            1 RES     
    3073 C0         -37.9420   -17.5828    71.9859 C0            1 RES     
    3074 C0         -37.4560   -16.8397    70.7522 C0            1 RES     
    3075 C0         -36.0998   -16.8890    70.6518 C0            1 RES     
    3076 C0         -35.4377   -17.4371    71.7477 C0            1 RES     
    3077 S1         -36.5048   -17.8746    73.0932 S1            1 RES     
    3078 H2         -37.7310   -20.3915    68.3554 H2            1 RES     
    3079 H2         -35.5657   -16.7221    69.7308 H2            1 RES     
    3080 N3         -35.9135   -24.3649    72.3518 N3            1 RES     
    3081 C0         -36.3901   -23.1678    71.9775 C0            1 RES     
    3082 C0         -36.9371   -22.8278    70.6519 C0            1 RES     
    3083 C0         -36.8572   -24.0343    69.8020 C0            1 RES     
    3084 N3         -37.2641   -24.1083    68.4951 N3            1 RES     
    3085 S1         -36.9676   -25.6937    68.0781 S1            1 RES     
    3086 N3         -36.3120   -26.3482    69.4463 N3            1 RES     
    3087 C0         -36.3234   -25.3079    70.2905 C0            1 RES     
    3088 C0         -35.8451   -25.4753    71.5669 C0            1 RES     
    3089 H4         -36.3317   -22.4334    72.7497 H4            1 RES     
    3090 C5         -47.3188     0.2171    71.7465 C5            1 RES     
    3091 C5         -46.8178    -1.2427    71.5548 C5            1 RES     
    3092 C5         -45.9128    -1.4398    70.2946 C5            1 RES     
    3093 C5         -45.0838    -2.8077    70.1534 C5            1 RES     
    3094 C5         -45.8005    -4.1732    69.7686 C5            1 RES     
    3095 C5         -45.0426    -5.6551    69.8489 C5            1 RES     
    3096 C5         -43.9306    -6.2881    68.8018 C5            1 RES     
    3097 C5         -43.3821    -7.9455    68.6229 C5            1 RES     
    3098 C5         -42.1555    -8.8761    69.3574 C5            1 RES     
    3099 C5         -41.5359   -10.5672    69.3788 C5            1 RES     
    3100 C5         -40.4138   -11.6106    68.4695 C5            1 RES     
    3101 C5         -40.5300   -10.8300    67.0375 C5            1 RES     
    3102 C5         -41.9473   -10.5909    66.3425 C5            1 RES     
    3103 C5         -42.0113    -9.4070    65.2830 C5            1 RES     
    3104 C5         -43.3535    -9.2847    64.4646 C5            1 RES     
    3105 C5         -43.8019   -10.6013    63.7935 C5            1 RES     
    3106 C5         -42.7234   -11.2556    62.8963 C5            1 RES     
    3107 C5         -43.0237   -11.2901    61.3933 C5            1 RES     
    3108 C5         -43.2036    -9.9210    60.7467 C5            1 RES     
    3109 C5         -39.4929   -13.3503    68.6325 C5            1 RES     
    3110 C0         -39.4646   -15.1818    69.3227 C0            1 RES     
    3111 C5         -40.9736   -15.5319    69.2644 C5            1 RES     
    3112 C5         -41.9952   -14.3793    69.7154 C5            1 RES     
    3113 C5         -42.2244   -14.3299    71.2358 C5            1 RES     
    3114 C5         -40.9747   -14.2920    72.1454 C5            1 RES     
    3115 C5         -39.9495   -13.1783    71.8399 C5            1 RES     
    3116 C5         -38.9179   -12.9445    72.9359 C5            1 RES     
    3117 C5         -38.1749   -14.2249    73.3187 C5            1 RES     
    3118 C5         -37.3412   -14.0038    74.5766 C5            1 RES     
    3119 C5         -36.8786   -15.3510    75.1148 C5            1 RES     
    3120 C5         -36.2196   -15.2436    76.4709 C5            1 RES     
    3121 C5         -43.3305   -14.4531    68.8991 C5            1 RES     
    3122 C5         -44.3216   -13.2314    68.7905 C5            1 RES     
    3123 C5         -45.2564   -12.7962    69.9518 C5            1 RES     
    3124 C5         -46.1060   -13.9583    70.4822 C5            1 RES     
    3125 C5         -47.2616   -13.5127    71.4066 C5            1 RES     
    3126 C5         -47.8481   -14.6985    72.2040 C5            1 RES     
    3127 C5         -48.3784   -15.8820    71.3678 C5            1 RES     
    3128 C5         -49.6280   -15.5844    70.5181 C5            1 RES     
    3129 C5         -50.8771   -15.1727    71.3222 C5            1 RES     
    3130 C5         -51.3341   -16.2366    72.3242 C5            1 RES     
    3131 H6         -46.4710     0.9296    71.8671 H6            1 RES     
    3132 H6         -47.9502     0.5671    70.9023 H6            1 RES     
    3133 H6         -47.9323     0.3012    72.6756 H6            1 RES     
    3134 H6         -46.2318    -1.4816    72.4667 H6            1 RES     
    3135 H6         -47.7014    -1.9107    71.5055 H6            1 RES     
    3136 H6         -46.5047    -1.2045    69.3813 H6            1 RES     
    3137 H6         -45.1515    -0.6284    70.3851 H6            1 RES     
    3138 H6         -44.5568    -2.9351    71.1189 H6            1 RES     
    3139 H6         -44.3320    -2.6176    69.3613 H6            1 RES     
    3140 H6         -46.2950    -4.0258    68.7795 H6            1 RES     
    3141 H6         -46.6410    -4.2172    70.5020 H6            1 RES     
    3142 H6         -45.9161    -6.3379    69.7566 H6            1 RES     
    3143 H6         -44.6641    -5.7378    70.8823 H6            1 RES     
    3144 H6         -44.4731    -6.0835    67.8452 H6            1 RES     
    3145 H6         -43.0660    -5.5934    68.7776 H6            1 RES     
    3146 H6         -43.0958    -7.9059    67.5514 H6            1 RES     
    3147 H6         -44.3428    -8.5035    68.6442 H6            1 RES     
    3148 H6         -41.2599    -8.2282    69.2614 H6            1 RES     
    3149 H6         -42.5121    -8.7598    70.4011 H6            1 RES     
    3150 H6         -42.4576   -11.1392    69.5225 H6            1 RES     
    3151 H6         -41.0470   -10.5448    70.3617 H6            1 RES     
    3152 H6         -39.4825   -11.0744    68.7596 H6            1 RES     
    3153 H6         -39.7782   -11.1648    66.2950 H6            1 RES     
    3154 H6         -40.2323    -9.7710    67.2596 H6            1 RES     
    3155 H6         -42.7319   -10.3351    67.0817 H6            1 RES     
    3156 H6         -42.2233   -11.5421    65.8616 H6            1 RES     
    3157 H6         -41.1741    -9.4894    64.5699 H6            1 RES     
    3158 H6         -41.8511    -8.4179    65.7721 H6            1 RES     
    3159 H6         -43.2525    -8.4939    63.6823 H6            1 RES     
    3160 H6         -44.1836    -8.9541    65.1312 H6            1 RES     
    3161 H6         -44.0378   -11.2944    64.6247 H6            1 RES     
    3162 H6         -44.7663   -10.4896    63.2461 H6            1 RES     
    3163 H6         -41.7252   -10.8135    63.0509 H6            1 RES     
    3164 H6         -42.6351   -12.3160    63.2128 H6            1 RES     
    3165 H6         -43.9352   -11.8979    61.2142 H6            1 RES     
    3166 H6         -42.1650   -11.7989    60.9013 H6            1 RES     
    3167 H6         -42.3080    -9.2855    60.9050 H6            1 RES     
    3168 H6         -43.3497   -10.0640    59.6535 H6            1 RES     
    3169 H6         -44.1018    -9.4121    61.1522 H6            1 RES     
    3170 H6         -38.5166   -13.0003    69.0390 H6            1 RES     
    3171 H6         -39.1959   -13.5044    67.5736 H6            1 RES     
    3172 H6         -41.1199   -15.7546    68.1901 H6            1 RES     
    3173 H6         -41.1653   -16.4556    69.8450 H6            1 RES     
    3174 H6         -41.6426   -13.4007    69.4487 H6            1 RES     
    3175 H6         -42.8273   -13.4314    71.4571 H6            1 RES     
    3176 H6         -42.8120   -15.2198    71.5306 H6            1 RES     
    3177 H6         -41.3528   -14.1533    73.1797 H6            1 RES     
    3178 H6         -40.4725   -15.2804    72.0855 H6            1 RES     
    3179 H6         -39.3606   -13.4605    70.9896 H6            1 RES     
    3180 H6         -40.4619   -12.2235    71.6407 H6            1 RES     
    3181 H6         -38.1828   -12.1782    72.5963 H6            1 RES     
    3182 H6         -39.4640   -12.5485    73.8147 H6            1 RES     
    3183 H6         -38.9268   -14.9950    73.5745 H6            1 RES     
    3184 H6         -37.5521   -14.6044    72.4764 H6            1 RES     
    3185 H6         -36.4783   -13.3333    74.3682 H6            1 RES     
    3186 H6         -37.9920   -13.5376    75.3456 H6            1 RES     
    3187 H6         -36.1475   -15.7655    74.4079 H6            1 RES     
    3188 H6         -37.7592   -16.0281    75.2236 H6            1 RES     
    3189 H6         -35.2971   -14.6353    76.3918 H6            1 RES     
    3190 H6         -35.9627   -16.2665    76.8207 H6            1 RES     
    3191 H6         -36.9250   -14.7843    77.1944 H6            1 RES     
    3192 H6         -43.8799   -15.3773    69.1525 H6            1 RES     
    3193 H6         -42.9898   -14.5445    67.8428 H6            1 RES     
    3194 H6         -43.7917   -12.3376    68.4104 H6            1 RES     
    3195 H6         -45.0198   -13.5018    67.9687 H6            1 RES     
    3196 H6         -44.7031   -12.3157    70.7855 H6            1 RES     
    3197 H6         -45.9418   -12.0183    69.5359 H6            1 RES     
    3198 H6         -45.4155   -14.6268    71.0353 H6            1 RES     
    3199 H6         -46.5550   -14.5089    69.6285 H6            1 RES     
    3200 H6         -48.0537   -13.0000    70.8133 H6            1 RES     
    3201 H6         -46.8835   -12.7841    72.1566 H6            1 RES     
    3202 H6         -48.6419   -14.3349    72.8901 H6            1 RES     
    3203 H6         -47.0284   -15.0912    72.8434 H6            1 RES     
    3204 H6         -48.6085   -16.7200    72.0568 H6            1 RES     
    3205 H6         -47.5717   -16.2520    70.7021 H6            1 RES     
    3206 H6         -49.3933   -14.7860    69.7831 H6            1 RES     
    3207 H6         -49.8758   -16.5048    69.9439 H6            1 RES     
    3208 H6         -50.6957   -14.2176    71.8563 H6            1 RES     
    3209 H6         -51.7066   -15.0033    70.6015 H6            1 RES     
    3210 H6         -51.5411   -17.1969    71.8054 H6            1 RES     
    3211 H6         -50.5701   -16.4008    73.1115 H6            1 RES     
    3212 H6         -52.2647   -15.8973    72.8259 H6            1 RES     
    3213 C0         -32.0512   -28.5475    73.3398 C0            1 RES     
    3214 C0         -32.7255   -27.4408    74.6596 C0            1 RES     
    3215 C0         -34.0470   -27.7914    74.9052 C0            1 RES     
    3216 S1         -34.9528   -26.6918    75.8653 S1            1 RES     
    3217 C0         -33.8567   -25.4883    76.1899 C0            1 RES     
    3218 C0         -32.6077   -26.0629    75.4622 C0            1 RES     
    3219 C0         -34.5906   -28.6673    73.8665 C0            1 RES     
    3220 C0         -33.5139   -28.3535    72.8404 C0            1 RES     
    3221 C0         -33.9107   -27.3586    72.0010 C0            1 RES     
    3222 C0         -35.2391   -26.9605    72.1298 C0            1 RES     
    3223 S1         -36.1667   -27.9054    73.3076 S1            1 RES     
    3224 H2         -31.7355   -25.4214    75.4240 H2            1 RES     
    3225 H2         -33.2257   -26.7623    71.4207 H2            1 RES     
    3226 N3         -36.6628   -23.1299    77.7766 N3            1 RES     
    3227 C0         -35.9690   -24.0751    77.1241 C0            1 RES     
    3228 C0         -34.5007   -24.1792    77.0520 C0            1 RES     
    3229 C0         -33.9252   -23.0516    77.8148 C0            1 RES     
    3230 N3         -32.5858   -22.8051    77.9705 N3            1 RES     
    3231 S1         -32.5433   -21.4485    78.9364 S1            1 RES     
    3232 N3         -34.1366   -21.0871    79.1836 N3            1 RES     
    3233 C0         -34.7560   -22.0607    78.5029 C0            1 RES     
    3234 C0         -36.1288   -22.0947    78.4815 C0            1 RES     
    3235 H4         -36.5926   -24.7815    76.6227 H4            1 RES     
    3236 C5         -28.3770   -46.2343    66.2764 C5            1 RES     
    3237 C5         -28.5963   -44.8996    67.0438 C5            1 RES     
    3238 C5         -27.7846   -43.6957    66.4625 C5            1 RES     
    3239 C5         -28.1535   -42.2132    66.9572 C5            1 RES     
    3240 C5         -27.7477   -41.6998    68.4056 C5            1 RES     
    3241 C5         -28.3127   -40.2749    69.0595 C5            1 RES     
    3242 C5         -27.8363   -38.7321    68.7038 C5            1 RES     
    3243 C5         -28.1139   -37.2446    69.5929 C5            1 RES     
    3244 C5         -29.3666   -36.0869    69.6086 C5            1 RES     
    3245 C5         -29.8593   -34.6029    70.5025 C5            1 RES     
    3246 C5         -29.5750   -32.8442    70.4695 C5            1 RES     
    3247 C5         -28.0958   -32.8933    69.7745 C5            1 RES     
    3248 C5         -26.9150   -33.7589    70.4113 C5            1 RES     
    3249 C5         -25.7378   -34.1633    69.4219 C5            1 RES     
    3250 C5         -24.4874   -34.8588    70.0845 C5            1 RES     
    3251 C5         -23.9055   -34.0881    71.2897 C5            1 RES     
    3252 C5         -23.5589   -32.6096    70.9899 C5            1 RES     
    3253 C5         -22.0705   -32.2435    71.0237 C5            1 RES     
    3254 C5         -21.2053   -32.9951    70.0179 C5            1 RES     
    3255 C5         -30.3127   -31.1753    71.2255 C5            1 RES     
    3256 C0         -31.2333   -30.2512    72.6850 C0            1 RES     
    3257 C5         -30.6955   -31.0402    73.9063 C5            1 RES     
    3258 C5         -30.5764   -32.6315    73.7361 C5            1 RES     
    3259 C5         -31.8904   -33.3753    74.0306 C5            1 RES     
    3260 C5         -33.1682   -32.8776    73.3164 C5            1 RES     
    3261 C5         -33.0842   -32.7687    71.7783 C5            1 RES     
    3262 C5         -34.4271   -32.6120    71.0769 C5            1 RES     
    3263 C5         -35.2358   -31.4352    71.6239 C5            1 RES     
    3264 C5         -36.6597   -31.4648    71.0781 C5            1 RES     
    3265 C5         -37.5220   -30.4944    71.8738 C5            1 RES     
    3266 C5         -38.9914   -30.6075    71.5379 C5            1 RES     
    3267 C5         -29.3596   -33.1991    74.5437 C5            1 RES     
    3268 C5         -28.7246   -34.6088    74.2330 C5            1 RES     
    3269 C5         -29.3989   -35.9473    74.6401 C5            1 RES     
    3270 C5         -29.7600   -35.9878    76.1306 C5            1 RES     
    3271 C5         -30.1356   -37.3971    76.6414 C5            1 RES     
    3272 C5         -30.8401   -37.3403    78.0149 C5            1 RES     
    3273 C5         -30.0570   -36.6495    79.1509 C5            1 RES     
    3274 C5         -28.7844   -37.3809    79.6173 C5            1 RES     
    3275 C5         -29.0209   -38.7889    80.1989 C5            1 RES     
    3276 C5         -29.9421   -38.7954    81.4221 C5            1 RES     
    3277 H6         -28.6831   -46.1490    65.2087 H6            1 RES     
    3278 H6         -27.3213   -46.5784    66.3094 H6            1 RES     
    3279 H6         -29.0037   -47.0465    66.7172 H6            1 RES     
    3280 H6         -29.6817   -44.6814    66.9635 H6            1 RES     
    3281 H6         -28.3367   -45.0635    68.1092 H6            1 RES     
    3282 H6         -26.6964   -43.9150    66.5492 H6            1 RES     
    3283 H6         -28.0175   -43.7211    65.3711 H6            1 RES     
    3284 H6         -29.2506   -42.1255    66.8363 H6            1 RES     
    3285 H6         -27.6614   -41.5299    66.2364 H6            1 RES     
    3286 H6         -26.6374   -41.7694    68.4878 H6            1 RES     
    3287 H6         -28.1323   -42.5146    69.0647 H6            1 RES     
    3288 H6         -28.0191   -40.4069    70.1245 H6            1 RES     
    3289 H6         -29.4131   -40.3418    69.0075 H6            1 RES     
    3290 H6         -26.7303   -38.8824    68.7771 H6            1 RES     
    3291 H6         -28.0174   -38.5711    67.6212 H6            1 RES     
    3292 H6         -27.2210   -36.6822    69.2492 H6            1 RES     
    3293 H6         -27.8755   -37.5566    70.6324 H6            1 RES     
    3294 H6         -29.4995   -35.8489    68.5331 H6            1 RES     
    3295 H6         -30.1855   -36.7857    69.8752 H6            1 RES     
    3296 H6         -29.7498   -34.9241    71.5428 H6            1 RES     
    3297 H6         -30.9366   -34.6422    70.2940 H6            1 RES     
    3298 H6         -30.0935   -32.6524    69.5034 H6            1 RES     
    3299 H6         -27.7279   -31.8964    69.4591 H6            1 RES     
    3300 H6         -28.2483   -33.4399    68.8065 H6            1 RES     
    3301 H6         -27.2801   -34.7272    70.8074 H6            1 RES     
    3302 H6         -26.5153   -33.1709    71.2519 H6            1 RES     
    3303 H6         -25.3896   -33.2783    68.8635 H6            1 RES     
    3304 H6         -26.0982   -34.8575    68.6273 H6            1 RES     
    3305 H6         -23.6832   -35.0033    69.3229 H6            1 RES     
    3306 H6         -24.7580   -35.8787    70.4438 H6            1 RES     
    3307 H6         -24.6923   -34.1154    72.0689 H6            1 RES     
    3308 H6         -23.0411   -34.6178    71.7525 H6            1 RES     
    3309 H6         -23.9902   -32.2631    70.0362 H6            1 RES     
    3310 H6         -24.0407   -31.9951    71.7789 H6            1 RES     
    3311 H6         -21.6720   -32.4171    72.0452 H6            1 RES     
    3312 H6         -21.9977   -31.1553    70.8030 H6            1 RES     
    3313 H6         -21.5747   -32.8422    68.9829 H6            1 RES     
    3314 H6         -20.1661   -32.6049    70.0861 H6            1 RES     
    3315 H6         -21.1842   -34.0788    70.2531 H6            1 RES     
    3316 H6         -30.9824   -30.8777    70.3866 H6            1 RES     
    3317 H6         -29.4642   -30.4878    71.0239 H6            1 RES     
    3318 H6         -29.6855   -30.6068    74.0374 H6            1 RES     
    3319 H6         -31.3012   -30.7999    74.8021 H6            1 RES     
    3320 H6         -30.3093   -32.9113    72.7343 H6            1 RES     
    3321 H6         -31.7460   -34.4359    73.7588 H6            1 RES     
    3322 H6         -32.0866   -33.3225    75.1182 H6            1 RES     
    3323 H6         -33.9673   -33.6018    73.5786 H6            1 RES     
    3324 H6         -33.4390   -31.8880    73.7407 H6            1 RES     
    3325 H6         -32.5511   -31.8770    71.5135 H6            1 RES     
    3326 H6         -32.5756   -33.6493    71.3543 H6            1 RES     
    3327 H6         -34.2605   -32.4694    69.9838 H6            1 RES     
    3328 H6         -34.9847   -33.5567    71.2314 H6            1 RES     
    3329 H6         -35.3196   -31.5561    72.7204 H6            1 RES     
    3330 H6         -34.7366   -30.4618    71.4125 H6            1 RES     
    3331 H6         -36.6739   -31.2224    69.9925 H6            1 RES     
    3332 H6         -37.0682   -32.4854    71.2325 H6            1 RES     
    3333 H6         -37.1915   -29.4743    71.6364 H6            1 RES     
    3334 H6         -37.4106   -30.7083    72.9636 H6            1 RES     
    3335 H6         -39.1553   -30.3323    70.4774 H6            1 RES     
    3336 H6         -39.5583   -29.9136    72.1950 H6            1 RES     
    3337 H6         -39.3397   -31.6444    71.7268 H6            1 RES     
    3338 H6         -29.5363   -33.0835    75.6279 H6            1 RES     
    3339 H6         -28.5197   -32.5223    74.2667 H6            1 RES     
    3340 H6         -28.4286   -34.6722    73.1688 H6            1 RES     
    3341 H6         -27.7586   -34.6147    74.7833 H6            1 RES     
    3342 H6         -30.2929   -36.1774    74.0239 H6            1 RES     
    3343 H6         -28.6552   -36.7551    74.4345 H6            1 RES     
    3344 H6         -30.6156   -35.2956    76.2665 H6            1 RES     
    3345 H6         -28.8950   -35.6347    76.7312 H6            1 RES     
    3346 H6         -29.2301   -38.0455    76.6839 H6            1 RES     
    3347 H6         -30.8531   -37.8732    75.9381 H6            1 RES     
    3348 H6         -31.1367   -38.3635    78.3284 H6            1 RES     
    3349 H6         -31.7801   -36.7657    77.8693 H6            1 RES     
    3350 H6         -30.7362   -36.5292    80.0194 H6            1 RES     
    3351 H6         -29.7848   -35.6209    78.8366 H6            1 RES     
    3352 H6         -28.0703   -37.4561    78.7704 H6            1 RES     
    3353 H6         -28.3041   -36.7589    80.4051 H6            1 RES     
    3354 H6         -29.4355   -39.4635    79.4221 H6            1 RES     
    3355 H6         -28.0358   -39.1993    80.5107 H6            1 RES     
    3356 H6         -29.5333   -38.1405    82.2210 H6            1 RES     
    3357 H6         -30.9645   -38.4573    81.1562 H6            1 RES     
    3358 H6         -30.0235   -39.8293    81.8187 H6            1 RES     
    3359 C0         -39.5720   -18.2088    78.6164 C0            1 RES     
    3360 C0         -40.3848   -19.8513    78.3661 C0            1 RES     
    3361 C0         -40.1941   -20.6229    79.5053 C0            1 RES     
    3362 S1         -40.5938   -22.2878    79.3639 S1            1 RES     
    3363 C0         -41.1029   -22.4176    77.7894 C0            1 RES     
    3364 C0         -40.9613   -20.9348    77.3411 C0            1 RES     
    3365 C0         -39.1734   -20.0614    80.3911 C0            1 RES     
    3366 C0         -38.5624   -19.1485    79.3404 C0            1 RES     
    3367 C0         -37.4982   -19.7413    78.7338 C0            1 RES     
    3368 C0         -37.0855   -20.9480    79.2937 C0            1 RES     
    3369 S1         -37.9838   -21.4157    80.7479 S1            1 RES     
    3370 H2         -41.1402   -20.7299    76.2924 H2            1 RES     
    3371 H2         -37.1171   -19.4377    77.7725 H2            1 RES     
    3372 N3         -41.2173   -26.4056    77.9787 N3            1 RES     
    3373 C0         -41.0030   -25.0957    78.1755 C0            1 RES     
    3374 C0         -41.4739   -24.0000    77.3097 C0            1 RES     
    3375 C0         -42.2137   -24.5978    76.1785 C0            1 RES     
    3376 N3         -42.7966   -23.8950    75.1562 N3            1 RES     
    3377 S1         -43.5001   -25.0762    74.2154 S1            1 RES     
    3378 N3         -43.1080   -26.4838    74.9865 N3            1 RES     
    3379 C0         -42.4053   -26.0433    76.0387 C0            1 RES     
    3380 C0         -41.9027   -26.9523    76.9372 C0            1 RES     
    3381 H4         -40.4243   -24.8924    79.0490 H4            1 RES     
    3382 C5         -37.0038    -1.9412    88.8626 C5            1 RES     
    3383 C5         -37.4344    -3.2149    88.0811 C5            1 RES     
    3384 C5         -37.0067    -3.2081    86.5768 C5            1 RES     
    3385 C5         -37.1105    -4.5776    85.7449 C5            1 RES     
    3386 C5         -38.5144    -5.1542    85.2729 C5            1 RES     
    3387 C5         -38.7039    -6.6796    84.6293 C5            1 RES     
    3388 C5         -38.3146    -7.1986    83.1085 C5            1 RES     
    3389 C5         -38.8140    -8.6531    82.2629 C5            1 RES     
    3390 C5         -38.2102   -10.2466    82.1829 C5            1 RES     
    3391 C5         -38.6381   -11.8476    81.4776 C5            1 RES     
    3392 C5         -38.4459   -12.7523    79.9547 C5            1 RES     
    3393 C5         -38.3376   -11.4561    78.9639 C5            1 RES     
    3394 C5         -39.4742   -10.3350    78.9474 C5            1 RES     
    3395 C5         -39.0401    -8.9131    78.3834 C5            1 RES     
    3396 C5         -40.1998    -7.8613    78.1963 C5            1 RES     
    3397 C5         -41.4034    -8.3911    77.3866 C5            1 RES     
    3398 C5         -41.0291    -8.9786    76.0043 C5            1 RES     
    3399 C5         -41.5345    -8.2048    74.7811 C5            1 RES     
    3400 C5         -41.0263    -6.7709    74.6780 C5            1 RES     
    3401 C5         -38.6318   -14.5873    79.2481 C5            1 RES     
    3402 C0         -39.5132   -16.3340    79.3107 C0            1 RES     
    3403 C5         -40.9491   -15.9144    79.7175 C5            1 RES     
    3404 C5         -41.0723   -14.7654    80.8311 C5            1 RES     
    3405 C5         -40.9882   -15.3014    82.2706 C5            1 RES     
    3406 C5         -39.8007   -16.2281    82.6193 C5            1 RES     
    3407 C5         -38.3950   -15.6772    82.2947 C5            1 RES     
    3408 C5         -37.2471   -16.4377    82.9458 C5            1 RES     
    3409 C5         -37.2886   -17.9339    82.6332 C5            1 RES     
    3410 C5         -36.2834   -18.6889    83.4968 C5            1 RES     
    3411 C5         -36.5661   -20.1823    83.4058 C5            1 RES     
    3412 C5         -35.7508   -20.9924    84.3876 C5            1 RES     
    3413 C5         -42.3346   -13.8704    80.5859 C5            1 RES     
    3414 C5         -42.4843   -12.4322    81.2152 C5            1 RES     
    3415 C5         -42.8203   -12.1963    82.7130 C5            1 RES     
    3416 C5         -44.0733   -12.9625    83.1564 C5            1 RES     
    3417 C5         -44.6218   -12.5157    84.5304 C5            1 RES     
    3418 C5         -45.6302   -13.5353    85.1045 C5            1 RES     
    3419 C5         -46.8535   -13.8517    84.2187 C5            1 RES     
    3420 C5         -47.8454   -12.6903    84.0208 C5            1 RES     
    3421 C5         -48.5084   -12.1751    85.3136 C5            1 RES     
    3422 C5         -49.3106   -13.2478    86.0556 C5            1 RES     
    3423 H6         -35.8971    -1.8139    88.8622 H6            1 RES     
    3424 H6         -37.4608    -1.0142    88.4553 H6            1 RES     
    3425 H6         -37.3092    -2.0176    89.9338 H6            1 RES     
    3426 H6         -36.9421    -4.0652    88.5974 H6            1 RES     
    3427 H6         -38.5343    -3.3233    88.1706 H6            1 RES     
    3428 H6         -37.5062    -2.3573    86.0604 H6            1 RES     
    3429 H6         -35.9207    -2.9522    86.6110 H6            1 RES     
    3430 H6         -36.5958    -5.3387    86.3628 H6            1 RES     
    3431 H6         -36.5182    -4.4094    84.8231 H6            1 RES     
    3432 H6         -38.9952    -4.3813    84.6280 H6            1 RES     
    3433 H6         -39.1076    -5.1433    86.2185 H6            1 RES     
    3434 H6         -39.8107    -6.7849    84.6728 H6            1 RES     
    3435 H6         -38.2750    -7.3705    85.3754 H6            1 RES     
    3436 H6         -38.7977    -6.3744    82.5267 H6            1 RES     
    3437 H6         -37.2272    -7.0283    82.9691 H6            1 RES     
    3438 H6         -38.7300    -8.2724    81.2238 H6            1 RES     
    3439 H6         -39.9044    -8.6731    82.4755 H6            1 RES     
    3440 H6         -37.1350   -10.0945    81.9550 H6            1 RES     
    3441 H6         -38.2696   -10.4623    83.2691 H6            1 RES     
    3442 H6         -39.6849   -11.9503    81.7795 H6            1 RES     
    3443 H6         -38.0687   -12.4830    82.1688 H6            1 RES     
    3444 H6         -37.3415   -12.8747    80.0212 H6            1 RES     
    3445 H6         -38.0283   -11.7191    77.9324 H6            1 RES     
    3446 H6         -37.4719   -10.8611    79.3584 H6            1 RES     
    3447 H6         -39.8546   -10.1176    79.9651 H6            1 RES     
    3448 H6         -40.3040   -10.7406    78.3482 H6            1 RES     
    3449 H6         -38.5164    -9.0301    77.4199 H6            1 RES     
    3450 H6         -38.2826    -8.4304    79.0440 H6            1 RES     
    3451 H6         -39.8044    -6.9419    77.7003 H6            1 RES     
    3452 H6         -40.5875    -7.5333    79.1886 H6            1 RES     
    3453 H6         -41.8469    -9.1965    78.0043 H6            1 RES     
    3454 H6         -42.2169    -7.6348    77.2950 H6            1 RES     
    3455 H6         -39.9440    -9.1436    75.8990 H6            1 RES     
    3456 H6         -41.4940    -9.9846    75.9406 H6            1 RES     
    3457 H6         -42.6446    -8.1963    74.7841 H6            1 RES     
    3458 H6         -41.1941    -8.7619    73.8799 H6            1 RES     
    3459 H6         -39.9171    -6.7416    74.6706 H6            1 RES     
    3460 H6         -41.4002    -6.3320    73.7270 H6            1 RES     
    3461 H6         -41.4128    -6.1578    75.5177 H6            1 RES     
    3462 H6         -37.5752   -14.9264    79.3461 H6            1 RES     
    3463 H6         -38.6445   -14.3680    78.1595 H6            1 RES     
    3464 H6         -41.3643   -15.5459    78.7599 H6            1 RES     
    3465 H6         -41.5245   -16.8077    80.0304 H6            1 RES     
    3466 H6         -40.2846   -14.0399    80.7510 H6            1 RES     
    3467 H6         -40.9471   -14.4333    82.9520 H6            1 RES     
    3468 H6         -41.9141   -15.8665    82.4886 H6            1 RES     
    3469 H6         -39.8667   -16.4127    83.7117 H6            1 RES     
    3470 H6         -39.9480   -17.1936    82.0912 H6            1 RES     
    3471 H6         -38.2069   -15.7793    81.2442 H6            1 RES     
    3472 H6         -38.3162   -14.6182    82.5884 H6            1 RES     
    3473 H6         -36.2765   -16.0142    82.5974 H6            1 RES     
    3474 H6         -37.3327   -16.2785    84.0388 H6            1 RES     
    3475 H6         -38.2886   -18.3156    82.9129 H6            1 RES     
    3476 H6         -37.1254   -18.1303    81.5487 H6            1 RES     
    3477 H6         -35.2404   -18.4548    83.1886 H6            1 RES     
    3478 H6         -36.4332   -18.3798    84.5524 H6            1 RES     
    3479 H6         -36.3120   -20.5141    82.3902 H6            1 RES     
    3480 H6         -37.6431   -20.3694    83.6309 H6            1 RES     
    3481 H6         -34.6729   -20.8906    84.1530 H6            1 RES     
    3482 H6         -36.0519   -22.0585    84.3016 H6            1 RES     
    3483 H6         -35.9563   -20.6445    85.4214 H6            1 RES     
    3484 H6         -43.2550   -14.4606    80.7432 H6            1 RES     
    3485 H6         -42.2764   -13.6226    79.5017 H6            1 RES     
    3486 H6         -41.6171   -11.8007    80.9445 H6            1 RES     
    3487 H6         -43.3362   -11.9694    80.6712 H6            1 RES     
    3488 H6         -41.9684   -12.4368    83.3826 H6            1 RES     
    3489 H6         -43.0156   -11.1025    82.8282 H6            1 RES     
    3490 H6         -43.7912   -14.0344    83.1921 H6            1 RES     
    3491 H6         -44.8821   -12.8139    82.4099 H6            1 RES     
    3492 H6         -45.0798   -11.5026    84.4514 H6            1 RES     
    3493 H6         -43.7890   -12.4482    85.2638 H6            1 RES     
    3494 H6         -45.9670   -13.2062    86.1102 H6            1 RES     
    3495 H6         -45.0759   -14.4876    85.2489 H6            1 RES     
    3496 H6         -47.3955   -14.7095    84.6665 H6            1 RES     
    3497 H6         -46.5065   -14.2005    83.2243 H6            1 RES     
    3498 H6         -47.3290   -11.8451    83.5191 H6            1 RES     
    3499 H6         -48.6500   -13.0430    83.3379 H6            1 RES     
    3500 H6         -47.7451   -11.7483    85.9960 H6            1 RES     
    3501 H6         -49.2075   -11.3565    85.0360 H6            1 RES     
    3502 H6         -50.0952   -13.6742    85.3946 H6            1 RES     
    3503 H6         -48.6514   -14.0631    86.4177 H6            1 RES     
    3504 H6         -49.8022   -12.7953    86.9424 H6            1 RES     
    3505 C0         -40.2228   -31.8102    76.1932 C0            1 RES     
    3506 C0         -39.9484   -31.2365    77.9301 C0            1 RES     
    3507 C0         -41.1826   -31.0353    78.5348 C0            1 RES     
    3508 S1         -41.1589   -30.2049    80.0387 S1            1 RES     
    3509 C0         -39.5446   -29.8953    80.2693 C0            1 RES     
    3510 C0         -38.9597   -30.5714    78.9963 C0            1 RES     
    3511 C0         -42.2787   -31.0162    77.5653 C0            1 RES     
    3512 C0         -41.3899   -30.7911    76.3529 C0            1 RES     
    3513 C0         -41.2971   -29.4674    76.0511 C0            1 RES     
    3514 C0         -42.1407   -28.6277    76.7743 C0            1 RES     
    3515 S1         -43.2332   -29.4779    77.8807 S1            1 RES     
    3516 H2         -37.8979   -30.4396    78.8262 H2            1 RES     
    3517 H2         -40.5002   -29.0473    75.4596 H2            1 RES     
    3518 N3         -40.2747   -27.5232    83.3988 N3            1 RES     
    3519 C0         -40.3366   -28.2762    82.2900 C0            1 RES     
    3520 C0         -39.2066   -28.9738    81.6507 C0            1 RES     
    3521 C0         -37.9893   -28.6882    82.4387 C0            1 RES     
    3522 N3         -36.7338   -29.1569    82.1507 N3            1 RES     
    3523 S1         -35.7922   -28.5476    83.3825 S1            1 RES     
    3524 N3         -36.8535   -27.6722    84.2976 N3            1 RES     
    3525 C0         -38.0082   -27.8549    83.6432 C0            1 RES     
    3526 C0         -39.1517   -27.2656    84.1242 C0            1 RES     
    3527 H4         -41.3179   -28.3285    81.8732 H4            1 RES     
    3528 C5         -48.1584   -44.0779    63.4361 C5            1 RES     
    3529 C5         -47.4746   -43.2819    64.5838 C5            1 RES     
    3530 C5         -46.2375   -42.4438    64.1219 C5            1 RES     
    3531 C5         -45.6378   -41.3454    65.1279 C5            1 RES     
    3532 C5         -44.7895   -41.7682    66.4038 C5            1 RES     
    3533 C5         -44.3562   -40.6988    67.6062 C5            1 RES     
    3534 C5         -43.1690   -39.5487    67.5666 C5            1 RES     
    3535 C5         -42.4286   -38.6621    68.8878 C5            1 RES     
    3536 C5         -42.8076   -37.2134    69.7051 C5            1 RES     
    3537 C5         -42.2440   -36.2366    71.1094 C5            1 RES     
    3538 C5         -41.0423   -34.9768    71.4886 C5            1 RES     
    3539 C5         -39.9728   -35.3595    70.3125 C5            1 RES     
    3540 C5         -39.3862   -36.8386    70.1823 C5            1 RES     
    3541 C5         -38.8075   -37.2340    68.7550 C5            1 RES     
    3542 C5         -38.0655   -38.6228    68.6714 C5            1 RES     
    3543 C5         -36.9698   -38.8148    69.7427 C5            1 RES     
    3544 C5         -35.9152   -37.6823    69.7818 C5            1 RES     
    3545 C5         -34.4913   -38.0694    69.3658 C5            1 RES     
    3546 C5         -34.3626   -38.5902    67.9385 C5            1 RES     
    3547 C5         -40.5985   -33.6864    72.9165 C5            1 RES     
    3548 C0         -40.6041   -33.2082    74.8146 C0            1 RES     
    3549 C5         -40.4064   -34.6035    75.4607 C5            1 RES     
    3550 C5         -41.2184   -35.8207    74.8016 C5            1 RES     
    3551 C5         -42.6566   -35.9509    75.3318 C5            1 RES     
    3552 C5         -43.5389   -34.6812    75.3223 C5            1 RES     
    3553 C5         -43.6566   -33.9498    73.9673 C5            1 RES     
    3554 C5         -44.7790   -32.9228    73.8936 C5            1 RES     
    3555 C5         -44.6994   -31.8916    75.0198 C5            1 RES     
    3556 C5         -45.9664   -31.0433    75.0589 C5            1 RES     
    3557 C5         -46.0051   -30.2598    76.3639 C5            1 RES     
    3558 C5         -47.3218   -29.5497    76.5804 C5            1 RES     
    3559 C5         -40.4097   -37.1594    74.8956 C5            1 RES     
    3560 C5         -40.7223   -38.4003    73.9742 C5            1 RES     
    3561 C5         -41.9496   -39.3266    74.1923 C5            1 RES     
    3562 C5         -42.0279   -39.8612    75.6281 C5            1 RES     
    3563 C5         -43.0340   -41.0207    75.8061 C5            1 RES     
    3564 C5         -43.3577   -41.2758    77.2948 C5            1 RES     
    3565 C5         -42.1529   -41.5881    78.2070 C5            1 RES     
    3566 C5         -41.4443   -42.9275    77.9318 C5            1 RES     
    3567 C5         -42.3245   -44.1789    78.1208 C5            1 RES     
    3568 C5         -42.8843   -44.3207    79.5390 C5            1 RES     
    3569 H6         -48.5323   -43.4017    62.6336 H6            1 RES     
    3570 H6         -47.4816   -44.8270    62.9726 H6            1 RES     
    3571 H6         -49.0496   -44.6301    63.8200 H6            1 RES     
    3572 H6         -48.2530   -42.5969    64.9799 H6            1 RES     
    3573 H6         -47.1825   -43.9979    65.3785 H6            1 RES     
    3574 H6         -45.4564   -43.1339    63.7300 H6            1 RES     
    3575 H6         -46.6168   -41.8757    63.2390 H6            1 RES     
    3576 H6         -46.5046   -40.7387    65.4544 H6            1 RES     
    3577 H6         -44.9726   -40.7098    64.5096 H6            1 RES     
    3578 H6         -43.9080   -42.3494    66.0436 H6            1 RES     
    3579 H6         -45.4495   -42.5263    66.8894 H6            1 RES     
    3580 H6         -44.0188   -41.4047    68.3972 H6            1 RES     
    3581 H6         -45.3003   -40.2419    67.9495 H6            1 RES     
    3582 H6         -42.3373   -40.1869    67.1765 H6            1 RES     
    3583 H6         -43.4013   -38.8621    66.7267 H6            1 RES     
    3584 H6         -41.4428   -38.4653    68.4176 H6            1 RES     
    3585 H6         -42.2402   -39.4725    69.6243 H6            1 RES     
    3586 H6         -42.9566   -36.4913    68.8761 H6            1 RES     
    3587 H6         -43.8209   -37.5149    70.0400 H6            1 RES     
    3588 H6         -42.1658   -36.9976    71.8918 H6            1 RES     
    3589 H6         -43.1791   -35.6987    71.3143 H6            1 RES     
    3590 H6         -41.5145   -34.1690    70.8858 H6            1 RES     
    3591 H6         -39.1704   -34.6048    70.1891 H6            1 RES     
    3592 H6         -40.5557   -35.2879    69.3562 H6            1 RES     
    3593 H6         -40.1575   -37.6081    70.3840 H6            1 RES     
    3594 H6         -38.5990   -36.9305    70.9466 H6            1 RES     
    3595 H6         -38.1222   -36.4499    68.3922 H6            1 RES     
    3596 H6         -39.6141   -37.2627    67.9857 H6            1 RES     
    3597 H6         -37.6110   -38.7521    67.6594 H6            1 RES     
    3598 H6         -38.7943   -39.4578    68.7906 H6            1 RES     
    3599 H6         -37.5026   -38.8349    70.7137 H6            1 RES     
    3600 H6         -36.4832   -39.8151    69.6749 H6            1 RES     
    3601 H6         -36.2284   -36.7979    69.2026 H6            1 RES     
    3602 H6         -35.8417   -37.3413    70.8356 H6            1 RES     
    3603 H6         -34.0983   -38.8347    70.0674 H6            1 RES     
    3604 H6         -33.8640   -37.1554    69.4622 H6            1 RES     
    3605 H6         -34.7456   -37.8479    67.2081 H6            1 RES     
    3606 H6         -33.2866   -38.7754    67.7267 H6            1 RES     
    3607 H6         -34.9083   -39.5487    67.8213 H6            1 RES     
    3608 H6         -41.1151   -32.7857    72.5128 H6            1 RES     
    3609 H6         -39.5568   -33.4356    72.6245 H6            1 RES     
    3610 H6         -39.3202   -34.7700    75.3279 H6            1 RES     
    3611 H6         -40.6242   -34.5469    76.5454 H6            1 RES     
    3612 H6         -41.3160   -35.7114    73.7377 H6            1 RES     
    3613 H6         -43.1702   -36.7204    74.7287 H6            1 RES     
    3614 H6         -42.6132   -36.3065    76.3786 H6            1 RES     
    3615 H6         -44.5509   -35.0092    75.6385 H6            1 RES     
    3616 H6         -43.1435   -33.9789    76.0859 H6            1 RES     
    3617 H6         -42.7694   -33.3727    73.7964 H6            1 RES     
    3618 H6         -43.7973   -34.6723    73.1475 H6            1 RES     
    3619 H6         -44.7392   -32.3995    72.9100 H6            1 RES     
    3620 H6         -45.7333   -33.4815    73.9608 H6            1 RES     
    3621 H6         -44.6591   -32.4362    75.9819 H6            1 RES     
    3622 H6         -43.7862   -31.2595    74.9325 H6            1 RES     
    3623 H6         -46.0177   -30.3656    74.1782 H6            1 RES     
    3624 H6         -46.8409   -31.7269    75.0485 H6            1 RES     
    3625 H6         -45.2079   -29.5052    76.3300 H6            1 RES     
    3626 H6         -45.8580   -30.9600    77.2205 H6            1 RES     
    3627 H6         -47.4732   -28.7914    75.7871 H6            1 RES     
    3628 H6         -47.2948   -29.0505    77.5728 H6            1 RES     
    3629 H6         -48.1507   -30.2879    76.5734 H6            1 RES     
    3630 H6         -40.3160   -37.4731    75.9506 H6            1 RES     
    3631 H6         -39.3931   -36.8797    74.5373 H6            1 RES     
    3632 H6         -40.6864   -38.1075    72.9078 H6            1 RES     
    3633 H6         -39.8484   -39.0761    74.0987 H6            1 RES     
    3634 H6         -42.9062   -38.8373    73.9139 H6            1 RES     
    3635 H6         -41.8230   -40.1933    73.4989 H6            1 RES     
    3636 H6         -42.3213   -39.0042    76.2679 H6            1 RES     
    3637 H6         -41.0295   -40.2349    75.9394 H6            1 RES     
    3638 H6         -42.6470   -41.9449    75.3178 H6            1 RES     
    3639 H6         -43.9967   -40.7622    75.3135 H6            1 RES     
    3640 H6         -44.1168   -42.0815    77.3823 H6            1 RES     
    3641 H6         -43.8302   -40.3480    77.6834 H6            1 RES     
    3642 H6         -42.5017   -41.5804    79.2598 H6            1 RES     
    3643 H6         -41.4109   -40.7670    78.1294 H6            1 RES     
    3644 H6         -41.0385   -42.9251    76.8983 H6            1 RES     
    3645 H6         -40.5808   -43.0050    78.6295 H6            1 RES     
    3646 H6         -43.1616   -44.1763    77.3930 H6            1 RES     
    3647 H6         -41.6975   -45.0724    77.9099 H6            1 RES     
    3648 H6         -42.0593   -44.3460    80.2826 H6            1 RES     
    3649 H6         -43.5746   -43.4875    79.7832 H6            1 RES     
    3650 H6         -43.4603   -45.2668    79.6167 H6            1 RES     
    3651 C0         -39.7883   -22.7763    86.6571 C0            1 RES     
    3652 C0         -41.4027   -23.5861    86.2584 C0            1 RES     
    3653 C0         -41.4920   -24.7780    86.9662 C0            1 RES     
    3654 S1         -42.7639   -25.8363    86.5035 S1            1 RES     
    3655 C0         -43.5042   -25.0127    85.2670 C0            1 RES     
    3656 C0         -42.6385   -23.7204    85.2525 C0            1 RES     
    3657 C0         -40.2050   -25.1849    87.5318 C0            1 RES     
    3658 C0         -39.3686   -24.2763    86.6457 C0            1 RES     
    3659 C0         -38.9252   -24.9388    85.5427 C0            1 RES     
    3660 C0         -39.1672   -26.3103    85.5303 C0            1 RES     
    3661 S1         -39.9269   -26.9244    87.0089 S1            1 RES     
    3662 H2         -42.8392   -23.0156    84.4546 H2            1 RES     
    3663 H2         -38.5999   -24.4432    84.6427 H2            1 RES     
    3664 N3         -45.7777   -28.1545    84.3112 N3            1 RES     
    3665 C0         -44.8451   -27.3157    84.7878 C0            1 RES     
    3666 C0         -44.7612   -25.8689    84.5197 C0            1 RES     
    3667 C0         -45.8782   -25.5054    83.6228 C0            1 RES     
    3668 N3         -46.1286   -24.2458    83.1436 N3            1 RES     
    3669 S1         -47.5088   -24.4375    82.2306 S1            1 RES     
    3670 N3         -47.8452   -26.0505    82.3533 N3            1 RES     
    3671 C0         -46.8583   -26.4852    83.1484 C0            1 RES     
    3672 C0         -46.8076   -27.8149    83.4880 C0            1 RES     
    3673 H4         -44.1197   -27.8010    85.4021 H4            1 RES     
    3674 C5         -27.0306   -15.7862    99.4865 C5            1 RES     
    3675 C5         -28.2136   -16.2413    98.5856 C5            1 RES     
    3676 C5         -28.1018   -15.7564    97.1029 C5            1 RES     
    3677 C5         -29.0791   -16.4081    96.0081 C5            1 RES     
    3678 C5         -30.6210   -16.0277    95.9450 C5            1 RES     
    3679 C5         -31.7245   -16.8467    95.0025 C5            1 RES     
    3680 C5         -31.9381   -16.7473    93.3660 C5            1 RES     
    3681 C5         -33.2878   -17.2845    92.3812 C5            1 RES     
    3682 C5         -33.6907   -18.7575    91.6210 C5            1 RES     
    3683 C5         -35.0407   -19.5028    90.6905 C5            1 RES     
    3684 C5         -35.6295   -19.6159    89.0126 C5            1 RES     
    3685 C5         -34.9815   -18.2131    88.4778 C5            1 RES     
    3686 C5         -35.2909   -16.8301    89.2130 C5            1 RES     
    3687 C5         -34.2387   -15.6629    88.9700 C5            1 RES     
    3688 C5         -34.6329   -14.2479    89.5431 C5            1 RES     
    3689 C5         -36.0394   -13.7693    89.1217 C5            1 RES     
    3690 C5         -36.2810   -13.7781    87.5928 C5            1 RES     
    3691 C5         -36.4611   -12.4082    86.9285 C5            1 RES     
    3692 C5         -35.2678   -11.4693    87.0678 C5            1 RES     
    3693 C5         -36.9118   -20.6498    87.9228 C5            1 RES     
    3694 C0         -38.5897   -21.6497    87.7949 C0            1 RES     
    3695 C5         -39.4647   -20.8693    88.8092 C5            1 RES     
    3696 C5         -38.7498   -20.4144    90.1721 C5            1 RES     
    3697 C5         -38.7474   -21.5091    91.2529 C5            1 RES     
    3698 C5         -38.2353   -22.9107    90.8485 C5            1 RES     
    3699 C5         -36.8339   -22.9579    90.2014 C5            1 RES     
    3700 C5         -36.2135   -24.3469    90.1268 C5            1 RES     
    3701 C5         -37.1268   -25.3558    89.4296 C5            1 RES     
    3702 C5         -36.5858   -26.7720    89.5969 C5            1 RES     
    3703 C5         -37.6591   -27.7706    89.1853 C5            1 RES     
    3704 C5         -37.2848   -29.1984    89.5111 C5            1 RES     
    3705 C5         -39.3240   -19.0503    90.6862 C5            1 RES     
    3706 C5         -38.5482   -18.1431    91.7167 C5            1 RES     
    3707 C5         -38.4517   -18.4765    93.2304 C5            1 RES     
    3708 C5         -39.8286   -18.7173    93.8626 C5            1 RES     
    3709 C5         -39.8086   -18.7375    95.4078 C5            1 RES     
    3710 C5         -41.1053   -19.3419    95.9903 C5            1 RES     
    3711 C5         -42.4218   -18.6546    95.5715 C5            1 RES     
    3712 C5         -42.6199   -17.2234    96.1047 C5            1 RES     
    3713 C5         -42.6685   -17.1036    97.6409 C5            1 RES     
    3714 C5         -43.7992   -17.9152    98.2792 C5            1 RES     
    3715 H6         -26.0562   -16.1756    99.1124 H6            1 RES     
    3716 H6         -26.9554   -14.6809    99.5681 H6            1 RES     
    3717 H6         -27.1506   -16.1870   100.5217 H6            1 RES     
    3718 H6         -28.2000   -17.3510    98.6093 H6            1 RES     
    3719 H6         -29.1577   -15.8799    99.0412 H6            1 RES     
    3720 H6         -28.1210   -14.6432    97.0818 H6            1 RES     
    3721 H6         -27.0675   -16.0518    96.8045 H6            1 RES     
    3722 H6         -28.9816   -17.5033    96.1392 H6            1 RES     
    3723 H6         -28.6499   -16.1290    95.0249 H6            1 RES     
    3724 H6         -30.6887   -14.9263    95.7810 H6            1 RES     
    3725 H6         -30.9478   -16.1774    97.0019 H6            1 RES     
    3726 H6         -32.6798   -16.4594    95.4211 H6            1 RES     
    3727 H6         -31.6375   -17.9063    95.2989 H6            1 RES     
    3728 H6         -31.9691   -15.6330    93.2734 H6            1 RES     
    3729 H6         -30.9780   -17.0328    92.8891 H6            1 RES     
    3730 H6         -33.1749   -16.5630    91.5455 H6            1 RES     
    3731 H6         -34.1554   -16.9129    92.9676 H6            1 RES     
    3732 H6         -32.7649   -19.0125    91.0652 H6            1 RES     
    3733 H6         -33.6846   -19.3821    92.5373 H6            1 RES     
    3734 H6         -35.9042   -19.2546    91.3152 H6            1 RES     
    3735 H6         -34.8171   -20.5566    90.9026 H6            1 RES     
    3736 H6         -34.7847   -20.2286    88.6253 H6            1 RES     
    3737 H6         -35.0401   -18.0963    87.3771 H6            1 RES     
    3738 H6         -33.8813   -18.3071    88.6780 H6            1 RES     
    3739 H6         -35.3179   -16.9449    90.3147 H6            1 RES     
    3740 H6         -36.2896   -16.5134    88.8745 H6            1 RES     
    3741 H6         -34.0304   -15.5572    87.8923 H6            1 RES     
    3742 H6         -33.2465   -15.9149    89.4120 H6            1 RES     
    3743 H6         -33.8799   -13.4855    89.2278 H6            1 RES     
    3744 H6         -34.6086   -14.2620    90.6575 H6            1 RES     
    3745 H6         -36.7490   -14.4757    89.5955 H6            1 RES     
    3746 H6         -36.2993   -12.7799    89.5640 H6            1 RES     
    3747 H6         -35.5032   -14.3392    87.0488 H6            1 RES     
    3748 H6         -37.2286   -14.3286    87.4154 H6            1 RES     
    3749 H6         -37.3625   -11.9126    87.3458 H6            1 RES     
    3750 H6         -36.6364   -12.5921    85.8451 H6            1 RES     
    3751 H6         -34.3468   -11.9330    86.6581 H6            1 RES     
    3752 H6         -35.4824   -10.5395    86.4968 H6            1 RES     
    3753 H6         -35.1089   -11.1940    88.1305 H6            1 RES     
    3754 H6         -36.2211   -21.4243    87.5177 H6            1 RES     
    3755 H6         -36.9752   -19.9894    87.0322 H6            1 RES     
    3756 H6         -39.7531   -19.9731    88.2271 H6            1 RES     
    3757 H6         -40.3796   -21.4505    89.0377 H6            1 RES     
    3758 H6         -37.7172   -20.1612    90.0210 H6            1 RES     
    3759 H6         -38.1234   -21.1534    92.0919 H6            1 RES     
    3760 H6         -39.7818   -21.6374    91.6238 H6            1 RES     
    3761 H6         -38.2163   -23.5110    91.7819 H6            1 RES     
    3762 H6         -38.9754   -23.3634    90.1557 H6            1 RES     
    3763 H6         -36.9053   -22.6536    89.1759 H6            1 RES     
    3764 H6         -36.1354   -22.2979    90.7404 H6            1 RES     
    3765 H6         -35.2419   -24.2908    89.5831 H6            1 RES     
    3766 H6         -36.0199   -24.6709    91.1684 H6            1 RES     
    3767 H6         -38.1103   -25.3359    89.9358 H6            1 RES     
    3768 H6         -37.2764   -25.0990    88.3558 H6            1 RES     
    3769 H6         -35.6537   -26.9132    89.0063 H6            1 RES     
    3770 H6         -36.3676   -26.9341    90.6731 H6            1 RES     
    3771 H6         -37.7984   -27.6900    88.0989 H6            1 RES     
    3772 H6         -38.6064   -27.5408    89.7289 H6            1 RES     
    3773 H6         -36.3856   -29.4908    88.9338 H6            1 RES     
    3774 H6         -38.1354   -29.8581    89.2357 H6            1 RES     
    3775 H6         -37.0940   -29.2960    90.6002 H6            1 RES     
    3776 H6         -40.3777   -19.1737    90.9942 H6            1 RES     
    3777 H6         -39.3130   -18.4011    89.7815 H6            1 RES     
    3778 H6         -37.5333   -17.9136    91.3406 H6            1 RES     
    3779 H6         -39.0747   -17.1643    91.6888 H6            1 RES     
    3780 H6         -37.7818   -19.3378    93.4340 H6            1 RES     
    3781 H6         -37.9864   -17.5890    93.7240 H6            1 RES     
    3782 H6         -40.1866   -19.6932    93.4761 H6            1 RES     
    3783 H6         -40.5265   -17.9125    93.5484 H6            1 RES     
    3784 H6         -39.6337   -17.7106    95.8043 H6            1 RES     
    3785 H6         -38.9733   -19.3787    95.7647 H6            1 RES     
    3786 H6         -41.0366   -19.3837    97.0979 H6            1 RES     
    3787 H6         -41.1572   -20.3931    95.6335 H6            1 RES     
    3788 H6         -43.2680   -19.2828    95.9168 H6            1 RES     
    3789 H6         -42.4912   -18.6378    94.4643 H6            1 RES     
    3790 H6         -41.8101   -16.5697    95.7178 H6            1 RES     
    3791 H6         -43.5820   -16.8394    95.6986 H6            1 RES     
    3792 H6         -41.6990   -17.4114    98.0835 H6            1 RES     
    3793 H6         -42.8302   -16.0335    97.8950 H6            1 RES     
    3794 H6         -44.7824   -17.6072    97.8635 H6            1 RES     
    3795 H6         -43.6547   -19.0027    98.1154 H6            1 RES     
    3796 H6         -43.8077   -17.7396    99.3756 H6            1 RES     
    3797 C0         -48.2476   -32.0122    80.7892 C0            1 RES     
    3798 C0         -47.4269   -32.4583    82.3857 C0            1 RES     
    3799 C0         -48.2264   -32.0251    83.4358 C0            1 RES     
    3800 S1         -47.5056   -32.0568    84.9950 S1            1 RES     
    3801 C0         -45.9786   -32.6310    84.6892 C0            1 RES     
    3802 C0         -46.0797   -32.8504    83.1525 C0            1 RES     
    3803 C0         -49.2665   -31.0952    82.9940 C0            1 RES     
    3804 C0         -48.6103   -30.7735    81.6611 C0            1 RES     
    3805 C0         -47.8492   -29.6487    81.7474 C0            1 RES     
    3806 C0         -47.9568   -28.9431    82.9434 C0            1 RES     
    3807 S1         -49.1429   -29.6149    84.0757 S1            1 RES     
    3808 H2         -45.1668   -33.1411    82.6468 H2            1 RES     
    3809 H2         -47.0603   -29.4103    81.0529 H2            1 RES     
    3810 N3         -44.7581   -31.8508    88.4115 N3            1 RES     
    3811 C0         -45.4040   -31.9175    87.2372 C0            1 RES     
    3812 C0         -44.9702   -32.6761    86.0504 C0            1 RES     
    3813 C0         -43.6914   -33.3413    86.3763 C0            1 RES     
    3814 N3         -42.9719   -34.1331    85.5193 N3            1 RES     
    3815 S1         -41.6676   -34.6216    86.4333 S1            1 RES     
    3816 N3         -41.9024   -33.8774    87.8897 N3            1 RES     
    3817 C0         -43.0517   -33.2189    87.6884 C0            1 RES     
    3818 C0         -43.5818   -32.4684    88.7091 C0            1 RES     
    3819 H4         -46.3012   -31.3396    87.2191 H4            1 RES     
    3820 C5         -63.5745   -32.3984    68.9085 C5            1 RES     
    3821 C5         -62.3908   -32.5901    69.8987 C5            1 RES     
    3822 C5         -60.9900   -32.2780    69.2771 C5            1 RES     
    3823 C5         -59.7300   -32.1340    70.2620 C5            1 RES     
    3824 C5         -59.0669   -33.4052    70.9479 C5            1 RES     
    3825 C5         -57.9275   -33.2975    72.1592 C5            1 RES     
    3826 C5         -56.3267   -32.9080    72.0194 C5            1 RES     
    3827 C5         -55.0187   -33.1311    73.1680 C5            1 RES     
    3828 C5         -54.3941   -32.1980    74.4522 C5            1 RES     
    3829 C5         -53.1671   -32.3097    75.7660 C5            1 RES     
    3830 C5         -51.4266   -32.0272    76.0221 C5            1 RES     
    3831 C5         -50.9539   -32.2751    74.4765 C5            1 RES     
    3832 C5         -51.3155   -33.6291    73.7118 C5            1 RES     
    3833 C5         -51.2909   -33.5584    72.1235 C5            1 RES     
    3834 C5         -51.4681   -34.9313    71.3685 C5            1 RES     
    3835 C5         -50.5079   -36.0410    71.8497 C5            1 RES     
    3836 C5         -49.0126   -35.6416    71.8234 C5            1 RES     
    3837 C5         -48.1309   -36.3872    70.8149 C5            1 RES     
    3838 C5         -48.5433   -36.2156    69.3570 C5            1 RES     
    3839 C5         -50.1199   -31.8521    77.4927 C5            1 RES     
    3840 C0         -49.5550   -32.3207    79.3073 C0            1 RES     
    3841 C5         -50.0633   -33.7825    79.3957 C5            1 RES     
    3842 C5         -51.5069   -34.0796    78.7607 C5            1 RES     
    3843 C5         -52.6686   -33.7815    79.7240 C5            1 RES     
    3844 C5         -52.6869   -32.3981    80.4142 C5            1 RES     
    3845 C5         -52.5950   -31.1738    79.4774 C5            1 RES     
    3846 C5         -52.9543   -29.8450    80.1293 C5            1 RES     
    3847 C5         -52.1371   -29.5770    81.3936 C5            1 RES     
    3848 C5         -52.6954   -28.3737    82.1464 C5            1 RES     
    3849 C5         -52.0834   -28.3259    83.5399 C5            1 RES     
    3850 C5         -52.7304   -27.2872    84.4271 C5            1 RES     
    3851 C5         -51.5734   -35.5218    78.1522 C5            1 RES     
    3852 C5         -52.6643   -35.9414    77.0936 C5            1 RES     
    3853 C5         -54.1451   -36.2182    77.4709 C5            1 RES     
    3854 C5         -54.2751   -37.2384    78.6092 C5            1 RES     
    3855 C5         -55.7109   -37.7769    78.8009 C5            1 RES     
    3856 C5         -55.8779   -38.4943    80.1586 C5            1 RES     
    3857 C5         -54.9208   -39.6753    80.4240 C5            1 RES     
    3858 C5         -55.1286   -40.9098    79.5269 C5            1 RES     
    3859 C5         -56.5108   -41.5803    79.6548 C5            1 RES     
    3860 C5         -56.8192   -42.0740    81.0711 C5            1 RES     
    3861 H6         -63.6338   -31.3496    68.5378 H6            1 RES     
    3862 H6         -63.5113   -33.0751    68.0299 H6            1 RES     
    3863 H6         -64.5469   -32.6057    69.4165 H6            1 RES     
    3864 H6         -62.5833   -31.8885    70.7370 H6            1 RES     
    3865 H6         -62.4217   -33.6303    70.2815 H6            1 RES     
    3866 H6         -60.7974   -32.9867    68.4401 H6            1 RES     
    3867 H6         -61.1264   -31.2753    68.8059 H6            1 RES     
    3868 H6         -60.0493   -31.4234    71.0488 H6            1 RES     
    3869 H6         -58.9336   -31.6576    69.6557 H6            1 RES     
    3870 H6         -58.7269   -34.0874    70.1333 H6            1 RES     
    3871 H6         -59.9483   -33.9204    71.3995 H6            1 RES     
    3872 H6         -57.9163   -34.3482    72.5248 H6            1 RES     
    3873 H6         -58.3902   -32.6770    72.9458 H6            1 RES     
    3874 H6         -56.0637   -33.5993    71.1803 H6            1 RES     
    3875 H6         -56.2706   -31.8970    71.5661 H6            1 RES     
    3876 H6         -54.1799   -33.2042    72.4450 H6            1 RES     
    3877 H6         -55.1959   -34.1733    73.5103 H6            1 RES     
    3878 H6         -54.2485   -31.2009    73.9880 H6            1 RES     
    3879 H6         -55.3351   -32.1343    75.0356 H6            1 RES     
    3880 H6         -53.3996   -33.2851    76.2042 H6            1 RES     
    3881 H6         -53.5999   -31.5686    76.4510 H6            1 RES     
    3882 H6         -51.4611   -30.9212    75.9021 H6            1 RES     
    3883 H6         -49.9000   -31.9865    74.2903 H6            1 RES     
    3884 H6         -51.5436   -31.5369    73.8711 H6            1 RES     
    3885 H6         -52.3396   -33.9778    73.9512 H6            1 RES     
    3886 H6         -50.6009   -34.3880    74.0662 H6            1 RES     
    3887 H6         -50.3547   -33.0888    71.7783 H6            1 RES     
    3888 H6         -52.0890   -32.8826    71.7366 H6            1 RES     
    3889 H6         -51.3309   -34.7830    70.2700 H6            1 RES     
    3890 H6         -52.5071   -35.3132    71.5002 H6            1 RES     
    3891 H6         -50.7984   -36.2530    72.8974 H6            1 RES     
    3892 H6         -50.6758   -37.0054    71.3170 H6            1 RES     
    3893 H6         -48.8710   -34.5566    71.6876 H6            1 RES     
    3894 H6         -48.5944   -35.8766    72.8245 H6            1 RES     
    3895 H6         -48.1216   -37.4691    71.0637 H6            1 RES     
    3896 H6         -47.0965   -35.9948    70.9340 H6            1 RES     
    3897 H6         -48.5618   -35.1434    69.0724 H6            1 RES     
    3898 H6         -47.8011   -36.7410    68.7167 H6            1 RES     
    3899 H6         -49.5391   -36.6696    69.1763 H6            1 RES     
    3900 H6         -50.1073   -30.7426    77.5918 H6            1 RES     
    3901 H6         -49.1769   -31.9871    76.9218 H6            1 RES     
    3902 H6         -49.2898   -34.3330    78.8267 H6            1 RES     
    3903 H6         -50.0358   -34.1243    80.4490 H6            1 RES     
    3904 H6         -51.6966   -33.4785    77.8913 H6            1 RES     
    3905 H6         -53.6113   -33.8864    79.1584 H6            1 RES     
    3906 H6         -52.6624   -34.5431    80.5266 H6            1 RES     
    3907 H6         -53.6446   -32.3472    80.9729 H6            1 RES     
    3908 H6         -51.8523   -32.3648    81.1456 H6            1 RES     
    3909 H6         -51.5779   -31.0400    79.1660 H6            1 RES     
    3910 H6         -53.2419   -31.3104    78.5961 H6            1 RES     
    3911 H6         -52.7894   -29.0175    79.4006 H6            1 RES     
    3912 H6         -54.0325   -29.8888    80.3797 H6            1 RES     
    3913 H6         -52.2517   -30.4469    82.0675 H6            1 RES     
    3914 H6         -51.0548   -29.4489    81.1622 H6            1 RES     
    3915 H6         -52.5029   -27.4314    81.5873 H6            1 RES     
    3916 H6         -53.7902   -28.5156    82.2623 H6            1 RES     
    3917 H6         -51.0195   -28.0749    83.4344 H6            1 RES     
    3918 H6         -52.2140   -29.3174    84.0355 H6            1 RES     
    3919 H6         -52.5611   -26.2768    84.0057 H6            1 RES     
    3920 H6         -52.2726   -27.3512    85.4375 H6            1 RES     
    3921 H6         -53.8177   -27.4933    84.5130 H6            1 RES     
    3922 H6         -51.5015   -36.2766    78.9555 H6            1 RES     
    3923 H6         -50.6455   -35.5937    77.5406 H6            1 RES     
    3924 H6         -52.6436   -35.2552    76.2259 H6            1 RES     
    3925 H6         -52.3051   -36.9094    76.6813 H6            1 RES     
    3926 H6         -54.6997   -35.2906    77.7238 H6            1 RES     
    3927 H6         -54.6333   -36.6414    76.5596 H6            1 RES     
    3928 H6         -53.9371   -36.7253    79.5324 H6            1 RES     
    3929 H6         -53.6169   -38.1090    78.4036 H6            1 RES     
    3930 H6         -55.9854   -38.4510    77.9569 H6            1 RES     
    3931 H6         -56.4329   -36.9313    78.7998 H6            1 RES     
    3932 H6         -56.9305   -38.8260    80.2822 H6            1 RES     
    3933 H6         -55.6873   -37.7353    80.9477 H6            1 RES     
    3934 H6         -55.0326   -39.9832    81.4835 H6            1 RES     
    3935 H6         -53.8721   -39.3286    80.3199 H6            1 RES     
    3936 H6         -54.9616   -40.6278    78.4661 H6            1 RES     
    3937 H6         -54.3545   -41.6617    79.7985 H6            1 RES     
    3938 H6         -57.3098   -40.8851    79.3250 H6            1 RES     
    3939 H6         -56.5278   -42.4599    78.9750 H6            1 RES     
    3940 H6         -56.0402   -42.7885    81.4128 H6            1 RES     
    3941 H6         -56.8819   -41.2282    81.7861 H6            1 RES     
    3942 H6         -57.8016   -42.5915    81.0771 H6            1 RES     
    3943 C0         -41.2072   -29.8142    92.4894 C0            1 RES     
    3944 C0         -43.0386   -29.5551    92.5009 C0            1 RES     
    3945 C0         -43.6586   -30.7592    92.8096 C0            1 RES     
    3946 S1         -45.3582   -30.8166    92.5650 S1            1 RES     
    3947 C0         -45.7046   -29.2982    91.9908 C0            1 RES     
    3948 C0         -44.2836   -28.6669    92.0341 C0            1 RES     
    3949 C0         -42.7423   -31.8961    92.7114 C0            1 RES     
    3950 C0         -41.6976   -31.1635    91.8852 C0            1 RES     
    3951 C0         -41.8797   -31.3854    90.5550 C0            1 RES     
    3952 C0         -42.8395   -32.3419    90.2332 C0            1 RES     
    3953 S1         -43.5632   -33.1422    91.6390 S1            1 RES     
    3954 H2         -44.1848   -27.6743    91.6113 H2            1 RES     
    3955 H2         -41.4836   -30.7429    89.7857 H2            1 RES     
    3956 N3         -49.4562   -30.3178    91.0747 N3            1 RES     
    3957 C0         -48.1532   -30.2878    91.3935 C0            1 RES     
    3958 C0         -47.3257   -29.0782    91.5487 C0            1 RES     
    3959 C0         -48.1803   -27.9029    91.2793 C0            1 RES     
    3960 N3         -47.7635   -26.5976    91.3180 N3            1 RES     
    3961 S1         -49.1434   -25.7316    90.9698 S1            1 RES     
    3962 N3         -50.2925   -26.8947    90.7316 N3            1 RES     
    3963 C0         -49.6000   -28.0227    90.9389 C0            1 RES     
    3964 C0         -50.2411   -29.2324    90.8309 C0            1 RES     
    3965 H4         -47.7312   -31.2595    91.5237 H4            1 RES     
    3966 C5         -24.8556   -35.7030   101.1011 C5            1 RES     
    3967 C5         -26.2186   -35.1348   100.6134 C5            1 RES     
    3968 C5         -26.0962   -34.1473    99.4069 C5            1 RES     
    3969 C5         -27.4312   -33.7370    98.6145 C5            1 RES     
    3970 C5         -28.4898   -32.7315    99.2426 C5            1 RES     
    3971 C5         -29.9962   -32.4635    98.5825 C5            1 RES     
    3972 C5         -30.3780   -31.5644    97.2485 C5            1 RES     
    3973 C5         -31.9360   -30.9492    96.7249 C5            1 RES     
    3974 C5         -33.2035   -31.5813    95.7741 C5            1 RES     
    3975 C5         -34.8684   -31.1524    95.2376 C5            1 RES     
    3976 C5         -35.6810   -30.2348    93.9443 C5            1 RES     
    3977 C5         -34.4600   -29.1900    93.6423 C5            1 RES     
    3978 C5         -33.8282   -28.3022    94.8092 C5            1 RES     
    3979 C5         -32.3609   -27.7494    94.5454 C5            1 RES     
    3980 C5         -31.8065   -26.7271    95.6103 C5            1 RES     
    3981 C5         -32.7576   -25.5456    95.9010 C5            1 RES     
    3982 C5         -33.2051   -24.7663    94.6406 C5            1 RES     
    3983 C5         -32.6993   -23.3238    94.5223 C5            1 RES     
    3984 C5         -31.1819   -23.1811    94.4763 C5            1 RES     
    3985 C5         -37.4762   -29.9899    93.1580 C5            1 RES     
    3986 C0         -39.4213   -29.9712    93.3763 C0            1 RES     
    3987 C5         -39.5407   -29.4274    94.8231 C5            1 RES     
    3988 C5         -38.4862   -29.9943    95.8917 C5            1 RES     
    3989 C5         -38.9176   -31.3289    96.5236 C5            1 RES     
    3990 C5         -39.3411   -32.4677    95.5674 C5            1 RES     
    3991 C5         -38.3265   -32.8359    94.4630 C5            1 RES     
    3992 C5         -38.6017   -34.1593    93.7610 C5            1 RES     
    3993 C5         -40.0186   -34.2322    93.1909 C5            1 RES     
    3994 C5         -40.3350   -35.6492    92.7237 C5            1 RES     
    3995 C5         -41.8310   -35.7706    92.4677 C5            1 RES     
    3996 C5         -42.2645   -37.1934    92.1987 C5            1 RES     
    3997 C5         -38.1166   -28.9061    96.9566 C5            1 RES     
    3998 C5         -36.8148   -28.9997    97.8417 C5            1 RES     
    3999 C5         -36.6781   -29.9750    99.0426 C5            1 RES     
    4000 C5         -37.8347   -29.8355   100.0407 C5            1 RES     
    4001 C5         -37.5817   -30.5469   101.3892 C5            1 RES     
    4002 C5         -38.8823   -30.7041   102.2075 C5            1 RES     
    4003 C5         -39.6438   -29.4008   102.5281 C5            1 RES     
    4004 C5         -38.9268   -28.4350   103.4897 C5            1 RES     
    4005 C5         -38.6537   -29.0029   104.8966 C5            1 RES     
    4006 C5         -39.9247   -29.4197   105.6421 C5            1 RES     
    4007 H6         -24.3357   -36.2706   100.2958 H6            1 RES     
    4008 H6         -24.1685   -34.9111   101.4680 H6            1 RES     
    4009 H6         -25.0097   -36.4225   101.9409 H6            1 RES     
    4010 H6         -26.8188   -36.0162   100.3051 H6            1 RES     
    4011 H6         -26.7162   -34.6387   101.4711 H6            1 RES     
    4012 H6         -25.4982   -33.2619    99.7207 H6            1 RES     
    4013 H6         -25.4631   -34.7017    98.6735 H6            1 RES     
    4014 H6         -27.9376   -34.6919    98.3739 H6            1 RES     
    4015 H6         -27.0837   -33.2720    97.6702 H6            1 RES     
    4016 H6         -27.9609   -31.7703    99.4450 H6            1 RES     
    4017 H6         -28.6702   -33.1736   100.2517 H6            1 RES     
    4018 H6         -30.4946   -31.9258    99.4193 H6            1 RES     
    4019 H6         -30.4649   -33.4594    98.5018 H6            1 RES     
    4020 H6         -29.8005   -30.6410    97.5040 H6            1 RES     
    4021 H6         -29.8286   -31.9990    96.3883 H6            1 RES     
    4022 H6         -31.5779   -30.0654    96.1572 H6            1 RES     
    4023 H6         -32.3446   -30.5371    97.6724 H6            1 RES     
    4024 H6         -32.6778   -31.9420    94.8660 H6            1 RES     
    4025 H6         -33.3978   -32.4781    96.3969 H6            1 RES     
    4026 H6         -35.3359   -30.8553    96.1813 H6            1 RES     
    4027 H6         -35.2359   -32.1668    95.0336 H6            1 RES     
    4028 H6         -35.3928   -30.9133    93.1103 H6            1 RES     
    4029 H6         -34.6197   -28.5839    92.7281 H6            1 RES     
    4030 H6         -33.5815   -29.8381    93.3827 H6            1 RES     
    4031 H6         -33.7373   -28.8695    95.7566 H6            1 RES     
    4032 H6         -34.5227   -27.4639    94.9742 H6            1 RES     
    4033 H6         -32.3050   -27.2799    93.5490 H6            1 RES     
    4034 H6         -31.6194   -28.5804    94.4928 H6            1 RES     
    4035 H6         -30.8196   -26.3254    95.2755 H6            1 RES     
    4036 H6         -31.6159   -27.2441    96.5793 H6            1 RES     
    4037 H6         -33.6527   -25.9933    96.3756 H6            1 RES     
    4038 H6         -32.3505   -24.8563    96.6764 H6            1 RES     
    4039 H6         -32.9680   -25.3053    93.7085 H6            1 RES     
    4040 H6         -34.3125   -24.6979    94.6753 H6            1 RES     
    4041 H6         -33.0939   -22.7249    95.3697 H6            1 RES     
    4042 H6         -33.1182   -22.9082    93.5788 H6            1 RES     
    4043 H6         -30.7525   -23.7671    93.6376 H6            1 RES     
    4044 H6         -30.9334   -22.1078    94.3243 H6            1 RES     
    4045 H6         -30.7292   -23.5090    95.4343 H6            1 RES     
    4046 H6         -37.4063   -30.7185    92.3182 H6            1 RES     
    4047 H6         -37.3048   -29.0514    92.5896 H6            1 RES     
    4048 H6         -39.3728   -28.3428    94.6790 H6            1 RES     
    4049 H6         -40.5735   -29.5778    95.1944 H6            1 RES     
    4050 H6         -37.5267   -30.1859    95.4491 H6            1 RES     
    4051 H6         -38.0763   -31.7002    97.1351 H6            1 RES     
    4052 H6         -39.7741   -31.1369    97.1971 H6            1 RES     
    4053 H6         -39.5087   -33.3588    96.2077 H6            1 RES     
    4054 H6         -40.3076   -32.1857    95.0994 H6            1 RES     
    4055 H6         -38.3806   -32.1114    93.6745 H6            1 RES     
    4056 H6         -37.3038   -32.8695    94.8714 H6            1 RES     
    4057 H6         -37.8642   -34.3029    92.9374 H6            1 RES     
    4058 H6         -38.4561   -34.9602    94.5124 H6            1 RES     
    4059 H6         -40.7297   -34.0074    94.0081 H6            1 RES     
    4060 H6         -40.1706   -33.4888    92.3751 H6            1 RES     
    4061 H6         -39.7467   -35.9085    91.8158 H6            1 RES     
    4062 H6         -40.0740   -36.3503    93.5438 H6            1 RES     
    4063 H6         -42.0743   -35.1634    91.5856 H6            1 RES     
    4064 H6         -42.3902   -35.4147    93.3658 H6            1 RES     
    4065 H6         -41.7848   -37.5619    91.2706 H6            1 RES     
    4066 H6         -43.3691   -37.2095    92.0791 H6            1 RES     
    4067 H6         -41.9881   -37.8378    93.0592 H6            1 RES     
    4068 H6         -38.9961   -28.6739    97.5833 H6            1 RES     
    4069 H6         -37.8928   -28.0029    96.3448 H6            1 RES     
    4070 H6         -35.9190   -29.1019    97.2004 H6            1 RES     
    4071 H6         -36.7068   -27.9920    98.2986 H6            1 RES     
    4072 H6         -36.5757   -31.0326    98.7216 H6            1 RES     
    4073 H6         -35.7269   -29.7081    99.5641 H6            1 RES     
    4074 H6         -38.7299   -30.2662    99.5479 H6            1 RES     
    4075 H6         -38.0090   -28.7604   100.2581 H6            1 RES     
    4076 H6         -36.8061   -30.0000   101.9737 H6            1 RES     
    4077 H6         -37.1978   -31.5741   101.2062 H6            1 RES     
    4078 H6         -38.6719   -31.2593   103.1460 H6            1 RES     
    4079 H6         -39.5647   -31.3418   101.6052 H6            1 RES     
    4080 H6         -40.6278   -29.6701   102.9631 H6            1 RES     
    4081 H6         -39.8687   -28.8650   101.5830 H6            1 RES     
    4082 H6         -37.9651   -28.1112   103.0390 H6            1 RES     
    4083 H6         -39.5648   -27.5302   103.6013 H6            1 RES     
    4084 H6         -37.9616   -29.8677   104.8369 H6            1 RES     
    4085 H6         -38.1519   -28.2103   105.4933 H6            1 RES     
    4086 H6         -40.6236   -28.5607   105.7307 H6            1 RES     
    4087 H6         -40.4357   -30.2582   105.1262 H6            1 RES     
    4088 H6         -39.6584   -29.7664   106.6627 H6            1 RES     
    4089 C0         -54.1765   -30.6682    87.7607 C0            1 RES     
    4090 C0         -53.4975   -32.0878    88.7326 C0            1 RES     
    4091 C0         -53.7420   -31.8638    90.0816 C0            1 RES     
    4092 S1         -52.9208   -32.8999    91.1789 S1            1 RES     
    4093 C0         -52.0409   -33.8860    90.1745 C0            1 RES     
    4094 C0         -52.4916   -33.3293    88.7937 C0            1 RES     
    4095 C0         -54.1469   -30.4834    90.3501 C0            1 RES     
    4096 C0         -53.6464   -29.9300    89.0258 C0            1 RES     
    4097 C0         -52.3874   -29.4279    89.1478 C0            1 RES     
    4098 C0         -51.8924   -29.3621    90.4480 C0            1 RES     
    4099 S1         -53.0519   -29.8651    91.6901 S1            1 RES     
    4100 H2         -51.9882   -33.7343    87.9240 H2            1 RES     
    4101 H2         -51.7224   -29.2819    88.3124 H2            1 RES     
    4102 N3         -50.0147   -35.4712    93.2298 N3            1 RES     
    4103 C0         -50.7675   -34.7161    92.4153 C0            1 RES     
    4104 C0         -51.0241   -34.9714    90.9866 C0            1 RES     
    4105 C0         -50.2961   -36.1995    90.6046 C0            1 RES     
    4106 N3         -50.2848   -36.7534    89.3507 N3            1 RES     
    4107 S1         -49.3437   -38.1164    89.5292 S1            1 RES     
    4108 N3         -48.8894   -38.0800    91.1174 N3            1 RES     
    4109 C0         -49.4953   -36.9697    91.5592 C0            1 RES     
    4110 C0         -49.3486   -36.6043    92.8749 C0            1 RES     
    4111 H4         -51.1829   -33.8614    92.9013 H4            1 RES     
    4112 C5         -68.8139   -18.9195    82.8687 C5            1 RES     
    4113 C5         -67.7945   -20.0318    83.2458 C5            1 RES     
    4114 C5         -66.5772   -20.1309    82.2689 C5            1 RES     
    4115 C5         -65.3103   -21.0129    82.7111 C5            1 RES     
    4116 C5         -65.3634   -22.6014    82.6980 C5            1 RES     
    4117 C5         -64.1788   -23.5590    83.3738 C5            1 RES     
    4118 C5         -62.6779   -23.9003    82.7701 C5            1 RES     
    4119 C5         -61.5491   -25.1624    83.2314 C5            1 RES     
    4120 C5         -60.3158   -25.2818    84.4040 C5            1 RES     
    4121 C5         -59.1650   -26.4947    85.0736 C5            1 RES     
    4122 C5         -57.5458   -27.1571    84.7354 C5            1 RES     
    4123 C5         -57.5449   -26.8721    83.1253 C5            1 RES     
    4124 C5         -58.7134   -27.4277    82.1900 C5            1 RES     
    4125 C5         -58.9089   -26.6776    80.8017 C5            1 RES     
    4126 C5         -59.9357   -27.3338    79.8011 C5            1 RES     
    4127 C5         -59.6893   -28.8366    79.5443 C5            1 RES     
    4128 C5         -58.2509   -29.1740    79.0826 C5            1 RES     
    4129 C5         -58.1059   -29.6963    77.6485 C5            1 RES     
    4130 C5         -58.5814   -28.7324    76.5669 C5            1 RES     
    4131 C5         -56.1456   -28.2513    85.5975 C5            1 RES     
    4132 C0         -55.6530   -29.6725    86.8501 C0            1 RES     
    4133 C5         -56.8642   -30.6266    86.6896 C5            1 RES     
    4134 C5         -58.3097   -29.9383    86.5792 C5            1 RES     
    4135 C5         -58.9389   -29.6211    87.9468 C5            1 RES     
    4136 C5         -58.0763   -28.8416    88.9660 C5            1 RES     
    4137 C5         -57.4729   -27.5117    88.4640 C5            1 RES     
    4138 C5         -56.9252   -26.6071    89.5601 C5            1 RES     
    4139 C5         -55.9065   -27.3211    90.4493 C5            1 RES     
    4140 C5         -55.5747   -26.4713    91.6716 C5            1 RES     
    4141 C5         -54.8250   -27.3236    92.6864 C5            1 RES     
    4142 C5         -54.6354   -26.6227    94.0121 C5            1 RES     
    4143 C5         -59.2611   -30.7625    85.6462 C5            1 RES     
    4144 C5         -60.5544   -30.1372    84.9958 C5            1 RES     
    4145 C5         -61.8567   -29.8666    85.7973 C5            1 RES     
    4146 C5         -62.3458   -31.1102    86.5508 C5            1 RES     
    4147 C5         -63.7862   -30.9810    87.0956 C5            1 RES     
    4148 C5         -64.1026   -32.0698    88.1446 C5            1 RES     
    4149 C5         -63.9329   -33.5308    87.6780 C5            1 RES     
    4150 C5         -64.9307   -34.0025    86.6038 C5            1 RES     
    4151 C5         -66.4108   -33.9714    87.0339 C5            1 RES     
    4152 C5         -66.7092   -34.8494    88.2525 C5            1 RES     
    4153 H6         -68.3404   -17.9111    82.8703 H6            1 RES     
    4154 H6         -69.2783   -19.0843    81.8731 H6            1 RES     
    4155 H6         -69.6415   -18.8773    83.6169 H6            1 RES     
    4156 H6         -67.4284   -19.7725    84.2611 H6            1 RES     
    4157 H6         -68.3349   -20.9990    83.2906 H6            1 RES     
    4158 H6         -66.9469   -20.3963    81.2527 H6            1 RES     
    4159 H6         -66.2084   -19.0798    82.1973 H6            1 RES     
    4160 H6         -65.0510   -20.6678    83.7307 H6            1 RES     
    4161 H6         -64.4930   -20.7239    82.0203 H6            1 RES     
    4162 H6         -65.5944   -22.9211    81.6545 H6            1 RES     
    4163 H6         -66.2964   -22.8143    83.2728 H6            1 RES     
    4164 H6         -64.6934   -24.5453    83.3850 H6            1 RES     
    4165 H6         -64.0866   -23.2207    84.4203 H6            1 RES     
    4166 H6         -62.9809   -24.1823    81.7309 H6            1 RES     
    4167 H6         -62.1444   -22.9357    82.6451 H6            1 RES     
    4168 H6         -61.0205   -25.2685    82.2614 H6            1 RES     
    4169 H6         -62.2166   -26.0485    83.2944 H6            1 RES     
    4170 H6         -59.7187   -24.3627    84.2320 H6            1 RES     
    4171 H6         -60.9555   -25.0758    85.2862 H6            1 RES     
    4172 H6         -59.8252   -27.3469    85.2611 H6            1 RES     
    4173 H6         -58.9978   -26.0304    86.0544 H6            1 RES     
    4174 H6         -56.9801   -26.2264    84.9657 H6            1 RES     
    4175 H6         -56.5541   -27.0299    82.6542 H6            1 RES     
    4176 H6         -57.7145   -25.7672    83.0264 H6            1 RES     
    4177 H6         -59.7047   -27.3536    82.6795 H6            1 RES     
    4178 H6         -58.4937   -28.4923    82.0153 H6            1 RES     
    4179 H6         -57.9393   -26.5716    80.2871 H6            1 RES     
    4180 H6         -59.2481   -25.6265    80.9546 H6            1 RES     
    4181 H6         -59.9176   -26.7906    78.8253 H6            1 RES     
    4182 H6         -60.9748   -27.2311    80.1913 H6            1 RES     
    4183 H6         -59.8761   -29.3391    80.5136 H6            1 RES     
    4184 H6         -60.4465   -29.2773    78.8554 H6            1 RES     
    4185 H6         -57.5557   -28.3306    79.2274 H6            1 RES     
    4186 H6         -57.8791   -29.9868    79.7409 H6            1 RES     
    4187 H6         -58.6580   -30.6542    77.5482 H6            1 RES     
    4188 H6         -57.0244   -29.9002    77.4840 H6            1 RES     
    4189 H6         -58.0478   -27.7621    76.6362 H6            1 RES     
    4190 H6         -58.3691   -29.1851    75.5735 H6            1 RES     
    4191 H6         -59.6753   -28.5661    76.6449 H6            1 RES     
    4192 H6         -55.5045   -27.4363    86.0043 H6            1 RES     
    4193 H6         -55.5418   -28.5192    84.7047 H6            1 RES     
    4194 H6         -56.6289   -31.1444    85.7400 H6            1 RES     
    4195 H6         -56.8623   -31.3733    87.5079 H6            1 RES     
    4196 H6         -58.2709   -28.9996    86.0591 H6            1 RES     
    4197 H6         -59.8577   -29.0351    87.7676 H6            1 RES     
    4198 H6         -59.2272   -30.5741    88.4292 H6            1 RES     
    4199 H6         -58.7407   -28.6273    89.8289 H6            1 RES     
    4200 H6         -57.2589   -29.5093    89.3104 H6            1 RES     
    4201 H6         -56.6179   -27.7181    87.8509 H6            1 RES     
    4202 H6         -58.2183   -26.9407    87.8875 H6            1 RES     
    4203 H6         -56.4488   -25.7111    89.0985 H6            1 RES     
    4204 H6         -57.7900   -26.2763    90.1684 H6            1 RES     
    4205 H6         -56.3742   -28.2479    90.8316 H6            1 RES     
    4206 H6         -54.9886   -27.5964    89.8808 H6            1 RES     
    4207 H6         -54.9849   -25.5734    91.3826 H6            1 RES     
    4208 H6         -56.5289   -26.1498    92.1388 H6            1 RES     
    4209 H6         -53.8338   -27.5510    92.2717 H6            1 RES     
    4210 H6         -55.4017   -28.2590    92.8821 H6            1 RES     
    4211 H6         -54.0046   -25.7227    93.8730 H6            1 RES     
    4212 H6         -54.1348   -27.3238    94.7139 H6            1 RES     
    4213 H6         -55.6239   -26.3413    94.4313 H6            1 RES     
    4214 H6         -59.4920   -31.7395    86.1070 H6            1 RES     
    4215 H6         -58.6411   -30.9565    84.7416 H6            1 RES     
    4216 H6         -60.2963   -29.2259    84.4240 H6            1 RES     
    4217 H6         -60.8637   -30.8671    84.2163 H6            1 RES     
    4218 H6         -61.7550   -29.0112    86.4972 H6            1 RES     
    4219 H6         -62.6361   -29.5758    85.0518 H6            1 RES     
    4220 H6         -61.6373   -31.2699    87.3888 H6            1 RES     
    4221 H6         -62.3238   -31.9881    85.8708 H6            1 RES     
    4222 H6         -64.5195   -31.0100    86.2567 H6            1 RES     
    4223 H6         -63.9074   -30.0026    87.6098 H6            1 RES     
    4224 H6         -65.1262   -31.9183    88.5475 H6            1 RES     
    4225 H6         -63.3996   -31.9131    88.9910 H6            1 RES     
    4226 H6         -64.0249   -34.1924    88.5634 H6            1 RES     
    4227 H6         -62.9009   -33.6775    87.2981 H6            1 RES     
    4228 H6         -64.8082   -33.3850    85.6893 H6            1 RES     
    4229 H6         -64.6717   -35.0511    86.3361 H6            1 RES     
    4230 H6         -66.7309   -32.9302    87.2431 H6            1 RES     
    4231 H6         -67.0212   -34.3473    86.1841 H6            1 RES     
    4232 H6         -66.4142   -35.9023    88.0555 H6            1 RES     
    4233 H6         -66.1769   -34.4804    89.1530 H6            1 RES     
    4234 H6         -67.7974   -34.8216    88.4713 H6            1 RES     
    4235 C0         -45.3317   -37.2648    96.1003 C0            1 RES     
    4236 C0         -46.6820   -36.2591    96.8661 C0            1 RES     
    4237 C0         -47.8063   -37.0609    97.0167 C0            1 RES     
    4238 S1         -49.2655   -36.2462    97.4154 S1            1 RES     
    4239 C0         -48.7988   -34.6547    97.4816 C0            1 RES     
    4240 C0         -47.2814   -34.8095    97.1765 C0            1 RES     
    4241 C0         -47.7039   -38.3079    96.2577 C0            1 RES     
    4242 C0         -46.5771   -37.8312    95.3556 C0            1 RES     
    4243 C0         -47.0621   -37.3325    94.1860 C0            1 RES     
    4244 C0         -48.4279   -37.5111    93.9794 C0            1 RES     
    4245 S1         -49.2370   -38.4400    95.2533 S1            1 RES     
    4246 H2         -46.7184   -33.8916    97.0572 H2            1 RES     
    4247 H2         -46.5058   -36.6648    93.5487 H2            1 RES     
    4248 N3         -52.5750   -33.3852    97.7695 N3            1 RES     
    4249 C0         -51.4430   -34.0790    97.5753 C0            1 RES     
    4250 C0         -50.0718   -33.5708    97.7583 C0            1 RES     
    4251 C0         -50.1615   -32.1576    98.1816 C0            1 RES     
    4252 N3         -49.0914   -31.3416    98.4422 N3            1 RES     
    4253 S1         -49.7942   -29.9025    98.9009 S1            1 RES     
    4254 N3         -51.4156   -30.1956    98.7778 N3            1 RES     
    4255 C0         -51.4420   -31.4727    98.3737 C0            1 RES     
    4256 C0         -52.6535   -32.0843    98.1632 C0            1 RES     
    4257 H4         -51.6161   -35.0806    97.2495 H4            1 RES     
    4258 C5         -33.8600   -52.9036    95.8974 C5            1 RES     
    4259 C5         -34.7365   -51.6420    96.1397 C5            1 RES     
    4260 C5         -34.2826   -50.3901    95.3194 C5            1 RES     
    4261 C5         -35.2726   -49.1286    95.2367 C5            1 RES     
    4262 C5         -35.4791   -48.1566    96.4772 C5            1 RES     
    4263 C5         -36.6668   -46.9890    96.5330 C5            1 RES     
    4264 C5         -36.6941   -45.5268    95.7619 C5            1 RES     
    4265 C5         -37.7096   -44.1265    96.0586 C5            1 RES     
    4266 C5         -39.2476   -43.6368    95.5067 C5            1 RES     
    4267 C5         -40.4558   -42.3287    95.7774 C5            1 RES     
    4268 C5         -40.8182   -40.6799    95.2075 C5            1 RES     
    4269 C5         -39.2903   -40.2706    94.7932 C5            1 RES     
    4270 C5         -38.0950   -40.3764    95.8464 C5            1 RES     
    4271 C5         -36.6325   -40.4763    95.2305 C5            1 RES     
    4272 C5         -35.4424   -40.3978    96.2618 C5            1 RES     
    4273 C5         -35.5176   -39.1861    97.2164 C5            1 RES     
    4274 C5         -35.6532   -37.8209    96.4995 C5            1 RES     
    4275 C5         -34.4596   -36.8675    96.6288 C5            1 RES     
    4276 C5         -33.1486   -37.4060    96.0665 C5            1 RES     
    4277 C5         -42.2747   -39.3467    95.2526 C5            1 RES     
    4278 C0         -43.8180   -38.5701    96.1728 C0            1 RES     
    4279 C5         -43.3820   -38.7365    97.6511 C5            1 RES     
    4280 C5         -42.6636   -40.1191    98.0357 C5            1 RES     
    4281 C5         -43.6544   -41.2495    98.3629 C5            1 RES     
    4282 C5         -44.7849   -41.5250    97.3447 C5            1 RES     
    4283 C5         -44.3374   -41.7692    95.8870 C5            1 RES     
    4284 C5         -45.4083   -42.3670    94.9839 C5            1 RES     
    4285 C5         -46.6974   -41.5447    94.9863 C5            1 RES     
    4286 C5         -47.8161   -42.3017    94.2780 C5            1 RES     
    4287 C5         -49.1463   -41.6218    94.5725 C5            1 RES     
    4288 C5         -50.3322   -42.4197    94.0807 C5            1 RES     
    4289 C5         -41.5878   -39.9075    99.1550 C5            1 RES     
    4290 C5         -40.4345   -40.9488    99.4243 C5            1 RES     
    4291 C5         -40.6709   -42.3030   100.1469 C5            1 RES     
    4292 C5         -41.3781   -42.1271   101.4968 C5            1 RES     
    4293 C5         -41.3496   -43.3925   102.3835 C5            1 RES     
    4294 C5         -42.3677   -43.3044   103.5418 C5            1 RES     
    4295 C5         -42.2158   -42.0948   104.4878 C5            1 RES     
    4296 C5         -40.9406   -42.0862   105.3513 C5            1 RES     
    4297 C5         -40.8068   -43.2747   106.3239 C5            1 RES     
    4298 C5         -41.9563   -43.3695   107.3311 C5            1 RES     
    4299 H6         -33.8791   -53.2176    94.8288 H6            1 RES     
    4300 H6         -32.8010   -52.7529    96.1970 H6            1 RES     
    4301 H6         -34.2500   -53.7695    96.4846 H6            1 RES     
    4302 H6         -35.7646   -51.9268    95.8333 H6            1 RES     
    4303 H6         -34.7303   -51.4168    97.2254 H6            1 RES     
    4304 H6         -33.2532   -50.1037    95.6326 H6            1 RES     
    4305 H6         -34.1904   -50.7759    94.2760 H6            1 RES     
    4306 H6         -36.2540   -49.5422    94.9337 H6            1 RES     
    4307 H6         -34.8825   -48.5000    94.4113 H6            1 RES     
    4308 H6         -34.4819   -47.7310    96.7400 H6            1 RES     
    4309 H6         -35.7097   -48.8700    97.3043 H6            1 RES     
    4310 H6         -36.6416   -46.7217    97.6127 H6            1 RES     
    4311 H6         -37.6145   -47.5224    96.3450 H6            1 RES     
    4312 H6         -35.6697   -45.1758    96.0423 H6            1 RES     
    4313 H6         -36.6243   -45.7258    94.6727 H6            1 RES     
    4314 H6         -37.0183   -43.3435    95.6836 H6            1 RES     
    4315 H6         -37.6629   -44.0460    97.1659 H6            1 RES     
    4316 H6         -39.1638   -43.7464    94.4058 H6            1 RES     
    4317 H6         -39.8035   -44.5267    95.8658 H6            1 RES     
    4318 H6         -40.5215   -42.3102    96.8695 H6            1 RES     
    4319 H6         -41.3508   -42.8663    95.4377 H6            1 RES     
    4320 H6         -41.0926   -40.9653    94.1672 H6            1 RES     
    4321 H6         -39.2313   -39.3214    94.2238 H6            1 RES     
    4322 H6         -38.9736   -41.0484    94.0488 H6            1 RES     
    4323 H6         -38.1833   -41.2797    96.4818 H6            1 RES     
    4324 H6         -38.1711   -39.4897    96.4946 H6            1 RES     
    4325 H6         -36.4864   -39.6924    94.4688 H6            1 RES     
    4326 H6         -36.4959   -41.4281    94.6660 H6            1 RES     
    4327 H6         -34.4673   -40.3718    95.7177 H6            1 RES     
    4328 H6         -35.4178   -41.3156    96.8939 H6            1 RES     
    4329 H6         -36.4207   -39.3507    97.8363 H6            1 RES     
    4330 H6         -34.6787   -39.1733    97.9500 H6            1 RES     
    4331 H6         -35.9078   -37.9315    95.4324 H6            1 RES     
    4332 H6         -36.5142   -37.2940    96.9612 H6            1 RES     
    4333 H6         -34.3140   -36.6031    97.6971 H6            1 RES     
    4334 H6         -34.7226   -35.9393    96.0743 H6            1 RES     
    4335 H6         -33.2571   -37.6796    94.9967 H6            1 RES     
    4336 H6         -32.3750   -36.6118    96.1539 H6            1 RES     
    4337 H6         -32.8069   -38.2873    96.6469 H6            1 RES     
    4338 H6         -42.7562   -39.5721    94.2737 H6            1 RES     
    4339 H6         -41.7056   -38.4383    94.9622 H6            1 RES     
    4340 H6         -42.6669   -37.9014    97.7787 H6            1 RES     
    4341 H6         -44.2493   -38.5627    98.3180 H6            1 RES     
    4342 H6         -42.0571   -40.4954    97.2333 H6            1 RES     
    4343 H6         -43.0750   -42.1822    98.4810 H6            1 RES     
    4344 H6         -44.1395   -41.0209    99.3306 H6            1 RES     
    4345 H6         -45.3129   -42.4300    97.7109 H6            1 RES     
    4346 H6         -45.4930   -40.6704    97.3736 H6            1 RES     
    4347 H6         -44.1065   -40.8302    95.4240 H6            1 RES     
    4348 H6         -43.4552   -42.4286    95.8574 H6            1 RES     
    4349 H6         -45.0177   -42.4386    93.9422 H6            1 RES     
    4350 H6         -45.6128   -43.3895    95.3581 H6            1 RES     
    4351 H6         -47.0225   -41.4187    96.0362 H6            1 RES     
    4352 H6         -46.5403   -40.5356    94.5410 H6            1 RES     
    4353 H6         -47.6250   -42.3601    93.1836 H6            1 RES     
    4354 H6         -47.8601   -43.3279    94.6990 H6            1 RES     
    4355 H6         -49.1499   -40.6490    94.0628 H6            1 RES     
    4356 H6         -49.2617   -41.4966    95.6756 H6            1 RES     
    4357 H6         -50.2935   -42.5062    92.9770 H6            1 RES     
    4358 H6         -51.2624   -41.8912    94.3808 H6            1 RES     
    4359 H6         -50.3256   -43.4264    94.5482 H6            1 RES     
    4360 H6         -42.0769   -39.6166   100.1017 H6            1 RES     
    4361 H6         -41.0025   -39.0305    98.7966 H6            1 RES     
    4362 H6         -39.8625   -41.1390    98.4966 H6            1 RES     
    4363 H6         -39.7144   -40.4142   100.0813 H6            1 RES     
    4364 H6         -41.2249   -43.0298    99.5170 H6            1 RES     
    4365 H6         -39.6625   -42.7469   100.3313 H6            1 RES     
    4366 H6         -42.4270   -41.8483   101.2691 H6            1 RES     
    4367 H6         -40.8897   -41.3088   102.0673 H6            1 RES     
    4368 H6         -40.3193   -43.5687   102.7704 H6            1 RES     
    4369 H6         -41.6347   -44.2814   101.7795 H6            1 RES     
    4370 H6         -42.3531   -44.2471   104.1285 H6            1 RES     
    4371 H6         -43.3751   -43.2323   103.0780 H6            1 RES     
    4372 H6         -43.0990   -42.0635   105.1579 H6            1 RES     
    4373 H6         -42.2541   -41.1579   103.8949 H6            1 RES     
    4374 H6         -40.0480   -42.0582   104.6915 H6            1 RES     
    4375 H6         -40.9424   -41.1488   105.9509 H6            1 RES     
    4376 H6         -40.7304   -44.2278   105.7615 H6            1 RES     
    4377 H6         -39.8619   -43.1438   106.8950 H6            1 RES     
    4378 H6         -42.0368   -42.4307   107.9197 H6            1 RES     
    4379 H6         -42.9212   -43.5681   106.8212 H6            1 RES     
    4380 H6         -41.7673   -44.2109   108.0304 H6            1 RES     
    4381 C0         -57.1559   -30.1006    96.4993 C0            1 RES     
    4382 C0         -57.2323   -31.9389    96.6889 C0            1 RES     
    4383 C0         -57.0915   -32.2559    98.0341 C0            1 RES     
    4384 S1         -56.8191   -33.9137    98.3935 S1            1 RES     
    4385 C0         -56.8081   -34.6245    96.8935 C0            1 RES     
    4386 C0         -57.0891   -33.3778    96.0065 C0            1 RES     
    4387 C0         -56.6139   -31.1206    98.8244 C0            1 RES     
    4388 C0         -56.1108   -30.3218    97.6330 C0            1 RES     
    4389 C0         -54.7847   -30.5407    97.4198 C0            1 RES     
    4390 C0         -54.1354   -31.2859    98.4010 C0            1 RES     
    4391 S1         -55.1620   -31.7179    99.7794 S1            1 RES     
    4392 H2         -57.0419   -33.5293    94.9348 H2            1 RES     
    4393 H2         -54.2946   -30.3493    96.4792 H2            1 RES     
    4394 N3         -55.5420   -38.1128    98.3706 N3            1 RES     
    4395 C0         -55.8688   -36.8298    98.1529 C0            1 RES     
    4396 C0         -56.4490   -36.2805    96.9145 C0            1 RES     
    4397 C0         -56.5965   -37.3893    95.9486 C0            1 RES     
    4398 N3         -57.0954   -37.2687    94.6775 N3            1 RES     
    4399 S1         -57.0537   -38.8260    94.0871 S1            1 RES     
    4400 N3         -56.4077   -39.7041    95.3288 N3            1 RES     
    4401 C0         -56.2163   -38.7675    96.2675 C0            1 RES     
    4402 C0         -55.6830   -39.1323    97.4794 C0            1 RES     
    4403 H4         -55.6564   -36.1962    98.9852 H4            1 RES     
    4404 C5         -63.3829   -12.3052   101.0559 C5            1 RES     
    4405 C5         -63.1065   -13.7899   100.6847 C5            1 RES     
    4406 C5         -62.3238   -13.9707    99.3428 C5            1 RES     
    4407 C5         -61.7071   -15.4141    99.0043 C5            1 RES     
    4408 C5         -62.6330   -16.6228    98.5484 C5            1 RES     
    4409 C5         -62.0879   -18.1927    98.4244 C5            1 RES     
    4410 C5         -61.1481   -18.8532    97.2352 C5            1 RES     
    4411 C5         -60.8518   -20.5405    96.8538 C5            1 RES     
    4412 C5         -59.7227   -21.6993    97.3944 C5            1 RES     
    4413 C5         -59.3477   -23.4505    97.2028 C5            1 RES     
    4414 C5         -58.4466   -24.5315    96.1100 C5            1 RES     
    4415 C5         -58.5461   -23.5942    94.7739 C5            1 RES     
    4416 C5         -59.9585   -23.0955    94.2212 C5            1 RES     
    4417 C5         -59.9250   -21.8075    93.2894 C5            1 RES     
    4418 C5         -61.2878   -21.4207    92.5971 C5            1 RES     
    4419 C5         -61.9608   -22.5866    91.8402 C5            1 RES     
    4420 C5         -61.0470   -23.2796    90.8005 C5            1 RES     
    4421 C5         -61.4481   -23.1133    89.3302 C5            1 RES     
    4422 C5         -61.4756   -21.6714    88.8351 C5            1 RES     
    4423 C5         -57.7714   -26.3859    96.0301 C5            1 RES     
    4424 C0         -57.9559   -28.2678    96.5359 C0            1 RES     
    4425 C5         -59.4997   -28.4051    96.5655 C5            1 RES     
    4426 C5         -60.3165   -27.1812    97.2061 C5            1 RES     
    4427 C5         -60.4352   -27.2639    98.7377 C5            1 RES     
    4428 C5         -59.1352   -27.4904    99.5434 C5            1 RES     
    4429 C5         -57.9857   -26.4973    99.2654 C5            1 RES     
    4430 C5         -56.8611   -26.5214   100.2924 C5            1 RES     
    4431 C5         -56.2823   -27.9229   100.4891 C5            1 RES     
    4432 C5         -55.3443   -27.9504   101.6914 C5            1 RES     
    4433 C5         -55.0417   -29.3969   102.0584 C5            1 RES     
    4434 C5         -54.2857   -29.5236   103.3611 C5            1 RES     
    4435 C5         -61.6999   -26.9888    96.4963 C5            1 RES     
    4436 C5         -62.5139   -25.6411    96.5860 C5            1 RES     
    4437 C5         -63.2991   -25.2113    97.8551 C5            1 RES     
    4438 C5         -64.2670   -26.2994    98.3374 C5            1 RES     
    4439 C5         -65.2844   -25.8046    99.3902 C5            1 RES     
    4440 C5         -65.9781   -26.9797   100.1141 C5            1 RES     
    4441 C5         -66.7242   -27.9859    99.2130 C5            1 RES     
    4442 C5         -67.9728   -27.4354    98.4990 C5            1 RES     
    4443 C5         -69.0954   -26.9487    99.4367 C5            1 RES     
    4444 C5         -69.6304   -28.0428   100.3650 C5            1 RES     
    4445 H6         -62.4370   -11.7292   101.1761 H6            1 RES     
    4446 H6         -64.0132   -11.7861   100.3027 H6            1 RES     
    4447 H6         -63.9155   -12.2394   102.0350 H6            1 RES     
    4448 H6         -62.5009   -14.2008   101.5193 H6            1 RES     
    4449 H6         -64.0767   -14.3249   100.6424 H6            1 RES     
    4450 H6         -62.9358   -13.5625    98.5069 H6            1 RES     
    4451 H6         -61.4515   -13.2825    99.4498 H6            1 RES     
    4452 H6         -61.1405   -15.7129    99.9075 H6            1 RES     
    4453 H6         -60.9902   -15.2427    98.1764 H6            1 RES     
    4454 H6         -63.1663   -16.3062    97.6211 H6            1 RES     
    4455 H6         -63.4209   -16.6322    99.3392 H6            1 RES     
    4456 H6         -63.0532   -18.7391    98.3371 H6            1 RES     
    4457 H6         -61.6573   -18.4348    99.4113 H6            1 RES     
    4458 H6         -61.7186   -18.4773    96.3494 H6            1 RES     
    4459 H6         -60.1978   -18.2815    97.2087 H6            1 RES     
    4460 H6         -60.6344   -20.4254    95.7716 H6            1 RES     
    4461 H6         -61.8780   -20.9642    96.8984 H6            1 RES     
    4462 H6         -58.7531   -21.1703    97.2897 H6            1 RES     
    4463 H6         -59.9895   -21.6484    98.4696 H6            1 RES     
    4464 H6         -60.3292   -23.9064    97.3643 H6            1 RES     
    4465 H6         -58.7965   -23.5985    98.1408 H6            1 RES     
    4466 H6         -57.4319   -24.1584    96.3747 H6            1 RES     
    4467 H6         -57.8999   -23.9454    93.9446 H6            1 RES     
    4468 H6         -58.0881   -22.6143    95.0725 H6            1 RES     
    4469 H6         -60.6485   -22.8174    95.0423 H6            1 RES     
    4470 H6         -60.3971   -23.9446    93.6745 H6            1 RES     
    4471 H6         -59.1569   -21.9244    92.5067 H6            1 RES     
    4472 H6         -59.5949   -20.9064    93.8572 H6            1 RES     
    4473 H6         -61.1284   -20.5716    91.8890 H6            1 RES     
    4474 H6         -62.0169   -21.0552    93.3569 H6            1 RES     
    4475 H6         -62.2364   -23.3265    92.6170 H6            1 RES     
    4476 H6         -62.9339   -22.2894    91.3854 H6            1 RES     
    4477 H6         -59.9885   -22.9937    90.9164 H6            1 RES     
    4478 H6         -61.0884   -24.3699    91.0052 H6            1 RES     
    4479 H6         -62.4460   -23.5714    89.1670 H6            1 RES     
    4480 H6         -60.7042   -23.6768    88.7240 H6            1 RES     
    4481 H6         -60.4909   -21.1816    88.9816 H6            1 RES     
    4482 H6         -61.7125   -21.6764    87.7485 H6            1 RES     
    4483 H6         -62.2643   -21.0933    89.3586 H6            1 RES     
    4484 H6         -56.7307   -26.2147    96.3887 H6            1 RES     
    4485 H6         -57.5699   -26.4646    94.9408 H6            1 RES     
    4486 H6         -59.7468   -28.4906    95.4899 H6            1 RES     
    4487 H6         -59.7808   -29.3516    97.0678 H6            1 RES     
    4488 H6         -59.8479   -26.2356    97.0075 H6            1 RES     
    4489 H6         -60.8894   -26.3218    99.0922 H6            1 RES     
    4490 H6         -61.1215   -28.0937    98.9915 H6            1 RES     
    4491 H6         -59.4206   -27.4134   100.6132 H6            1 RES     
    4492 H6         -58.7824   -28.5248    99.3483 H6            1 RES     
    4493 H6         -57.5001   -26.7634    98.3473 H6            1 RES     
    4494 H6         -58.3704   -25.4669    99.2009 H6            1 RES     
    4495 H6         -56.0495   -25.8283    99.9703 H6            1 RES     
    4496 H6         -57.2865   -26.1520   101.2463 H6            1 RES     
    4497 H6         -57.1167   -28.6086   100.7289 H6            1 RES     
    4498 H6         -55.7764   -28.2902    99.5669 H6            1 RES     
    4499 H6         -54.4112   -27.3827   101.4801 H6            1 RES     
    4500 H6         -55.8705   -27.4861   102.5515 H6            1 RES     
    4501 H6         -54.4247   -29.8276   101.2584 H6            1 RES     
    4502 H6         -55.9997   -29.9581   102.1717 H6            1 RES     
    4503 H6         -53.2940   -29.0389   103.2672 H6            1 RES     
    4504 H6         -54.1530   -30.6030   103.5889 H6            1 RES     
    4505 H6         -54.8698   -29.0540   104.1799 H6            1 RES     
    4506 H6         -62.3562   -27.8530    96.7027 H6            1 RES     
    4507 H6         -61.4462   -27.0117    95.4121 H6            1 RES     
    4508 H6         -61.8897   -24.7907    96.2524 H6            1 RES     
    4509 H6         -63.2961   -25.7268    95.8006 H6            1 RES     
    4510 H6         -62.6296   -24.9006    98.6841 H6            1 RES     
    4511 H6         -63.8940   -24.3090    97.5724 H6            1 RES     
    4512 H6         -63.6424   -27.1092    98.7662 H6            1 RES     
    4513 H6         -64.8446   -26.6911    97.4734 H6            1 RES     
    4514 H6         -66.0339   -25.1305    98.9147 H6            1 RES     
    4515 H6         -64.7586   -25.2172   100.1742 H6            1 RES     
    4516 H6         -66.6655   -26.5886   100.8936 H6            1 RES     
    4517 H6         -65.1814   -27.5442   100.6448 H6            1 RES     
    4518 H6         -67.0240   -28.8544    99.8342 H6            1 RES     
    4519 H6         -66.0235   -28.3872    98.4521 H6            1 RES     
    4520 H6         -67.6771   -26.6018    97.8279 H6            1 RES     
    4521 H6         -68.3854   -28.2480    97.8605 H6            1 RES     
    4522 H6         -68.7461   -26.0888   100.0441 H6            1 RES     
    4523 H6         -69.9386   -26.5943    98.8047 H6            1 RES     
    4524 H6         -70.0046   -28.9060    99.7742 H6            1 RES     
    4525 H6         -68.8467   -28.3904   101.0688 H6            1 RES     
    4526 H6         -70.4686   -27.6377   100.9701 H6            1 RES     
    4527 C0         -52.2510   -42.8547    98.6374 C0            1 RES     
    4528 C0         -52.6736   -41.8149   100.1076 C0            1 RES     
    4529 C0         -54.0122   -42.0102   100.4235 C0            1 RES     
    4530 S1         -54.6884   -40.9080   101.5549 S1            1 RES     
    4531 C0         -53.4145   -39.9031   101.9049 C0            1 RES     
    4532 C0         -52.3099   -40.5584   101.0273 C0            1 RES     
    4533 C0         -54.7415   -42.6899    99.3522 C0            1 RES     
    4534 C0         -53.7016   -42.4151    98.2781 C0            1 RES     
    4535 C0         -54.0089   -41.2924    97.5731 C0            1 RES     
    4536 C0         -55.2564   -40.7366    97.8460 C0            1 RES     
    4537 S1         -56.2279   -41.6693    98.9978 S1            1 RES     
    4538 H2         -51.3604   -40.0387   100.9813 H2            1 RES     
    4539 H2         -53.2866   -40.7344    96.9999 H2            1 RES     
    4540 N3         -55.7487   -37.3740   103.9317 N3            1 RES     
    4541 C0         -55.2399   -38.3283   103.1376 C0            1 RES     
    4542 C0         -53.8089   -38.6192   102.9381 C0            1 RES     
    4543 C0         -53.0311   -37.6663   103.7574 C0            1 RES     
    4544 N3         -51.6629   -37.6188   103.8281 N3            1 RES     
    4545 S1         -51.3657   -36.3906   104.9138 S1            1 RES     
    4546 N3         -52.8722   -35.8483   105.3218 N3            1 RES     
    4547 C0         -53.6664   -36.6524   104.6023 C0            1 RES     
    4548 C0         -55.0286   -36.5004   104.6880 C0            1 RES     
    4549 H4         -55.9887   -38.8877   102.6221 H4            1 RES     
    4550 C5         -51.5828   -60.0193    89.6295 C5            1 RES     
    4551 C5         -51.5605   -58.7567    90.5371 C5            1 RES     
    4552 C5         -50.6275   -57.6169    90.0114 C5            1 RES     
    4553 C5         -50.7501   -56.1597    90.6747 C5            1 RES     
    4554 C5         -50.1809   -55.8623    92.1286 C5            1 RES     
    4555 C5         -50.4948   -54.4526    92.9600 C5            1 RES     
    4556 C5         -49.8303   -52.9582    92.7177 C5            1 RES     
    4557 C5         -49.8359   -51.5503    93.7655 C5            1 RES     
    4558 C5         -50.9092   -50.2440    93.9932 C5            1 RES     
    4559 C5         -51.1274   -48.8113    95.0627 C5            1 RES     
    4560 C5         -50.6009   -47.1129    95.1767 C5            1 RES     
    4561 C5         -49.1926   -47.2846    94.3637 C5            1 RES     
    4562 C5         -48.1061   -48.3630    94.8172 C5            1 RES     
    4563 C5         -47.0658   -48.8131    93.7021 C5            1 RES     
    4564 C5         -45.8848   -49.7359    94.1920 C5            1 RES     
    4565 C5         -45.1216   -49.1826    95.4153 C5            1 RES     
    4566 C5         -44.5906   -47.7401    95.2327 C5            1 RES     
    4567 C5         -43.0665   -47.5817    95.1819 C5            1 RES     
    4568 C5         -42.3845   -48.3305    94.0422 C5            1 RES     
    4569 C5         -51.0442   -45.4506    96.1469 C5            1 RES     
    4570 C0         -51.7267   -44.5727    97.7579 C0            1 RES     
    4571 C5         -51.2258   -45.5521    98.8502 C5            1 RES     
    4572 C5         -51.3437   -47.1178    98.5184 C5            1 RES     
    4573 C5         -52.7270   -47.7066    98.8444 C5            1 RES     
    4574 C5         -53.9663   -46.9696    98.2864 C5            1 RES     
    4575 C5         -53.9699   -46.7096    96.7641 C5            1 RES     
    4576 C5         -55.3208   -46.3012    96.1912 C5            1 RES     
    4577 C5         -55.9174   -45.0920    96.9123 C5            1 RES     
    4578 C5         -57.3643   -44.8731    96.4823 C5            1 RES     
    4579 C5         -58.0266   -43.8866    97.4345 C5            1 RES     
    4580 C5         -59.5163   -43.7661    97.2083 C5            1 RES     
    4581 C5         -50.1683   -47.9255    99.1672 C5            1 RES     
    4582 C5         -49.7603   -49.3661    98.6721 C5            1 RES     
    4583 C5         -50.5881   -50.6383    99.0010 C5            1 RES     
    4584 C5         -50.8517   -50.7888   100.5048 C5            1 RES     
    4585 C5         -51.3876   -52.1817   100.9059 C5            1 RES     
    4586 C5         -51.9846   -52.1781   102.3306 C5            1 RES     
    4587 C5         -51.0384   -51.7230   103.4613 C5            1 RES     
    4588 C5         -49.8536   -52.6633   103.7513 C5            1 RES     
    4589 C5         -50.2471   -54.0809   104.2115 C5            1 RES     
    4590 C5         -51.0769   -54.0948   105.4984 C5            1 RES     
    4591 H6         -51.9438   -59.7807    88.6030 H6            1 RES     
    4592 H6         -50.5863   -60.5028    89.5443 H6            1 RES     
    4593 H6         -52.2871   -60.7829    90.0388 H6            1 RES     
    4594 H6         -52.6072   -58.3884    90.5657 H6            1 RES     
    4595 H6         -51.2565   -59.0664    91.5575 H6            1 RES     
    4596 H6         -49.5777   -57.9875    89.9888 H6            1 RES     
    4597 H6         -50.9333   -57.4945    88.9448 H6            1 RES     
    4598 H6         -51.8294   -55.9139    90.6512 H6            1 RES     
    4599 H6         -50.2154   -55.4753    89.9860 H6            1 RES     
    4600 H6         -49.0885   -56.0878    92.1143 H6            1 RES     
    4601 H6         -50.6320   -56.6841    92.7348 H6            1 RES     
    4602 H6         -50.1529   -54.7353    93.9803 H6            1 RES     
    4603 H6         -51.5947   -54.3661    92.9904 H6            1 RES     
    4604 H6         -48.7541   -53.2617    92.6871 H6            1 RES     
    4605 H6         -50.0582   -52.6601    91.6737 H6            1 RES     
    4606 H6         -48.8975   -51.0787    93.4070 H6            1 RES     
    4607 H6         -49.5756   -52.0003    94.7475 H6            1 RES     
    4608 H6         -51.0781   -49.8772    92.9598 H6            1 RES     
    4609 H6         -51.7989   -50.8517    94.2561 H6            1 RES     
    4610 H6         -50.9957   -49.2532    96.0550 H6            1 RES     
    4611 H6         -52.2109   -48.6840    94.9386 H6            1 RES     
    4612 H6         -51.1500   -46.7518    94.2784 H6            1 RES     
    4613 H6         -48.7096   -46.3178    94.1174 H6            1 RES     
    4614 H6         -49.4845   -47.6997    93.3629 H6            1 RES     
    4615 H6         -48.5770   -49.3105    95.1461 H6            1 RES     
    4616 H6         -47.5728   -47.9265    95.6758 H6            1 RES     
    4617 H6         -46.6341   -47.9281    93.2056 H6            1 RES     
    4618 H6         -47.5723   -49.3643    92.8758 H6            1 RES     
    4619 H6         -45.1613   -49.9045    93.3580 H6            1 RES     
    4620 H6         -46.2722   -50.7430    94.4719 H6            1 RES     
    4621 H6         -45.8510   -49.1876    96.2489 H6            1 RES     
    4622 H6         -44.3117   -49.8692    95.7540 H6            1 RES     
    4623 H6         -45.0310   -47.2396    94.3545 H6            1 RES     
    4624 H6         -44.9277   -47.1544    96.1133 H6            1 RES     
    4625 H6         -42.6298   -47.9148    96.1467 H6            1 RES     
    4626 H6         -42.8558   -46.4957    95.0621 H6            1 RES     
    4627 H6         -42.7964   -48.0203    93.0597 H6            1 RES     
    4628 H6         -41.2984   -48.0920    94.0640 H6            1 RES     
    4629 H6         -42.5008   -49.4262    94.1694 H6            1 RES     
    4630 H6         -51.7194   -44.9786    95.3971 H6            1 RES     
    4631 H6         -50.1225   -44.8650    95.9450 H6            1 RES     
    4632 H6         -50.1583   -45.2738    98.9411 H6            1 RES     
    4633 H6         -51.7308   -45.3299    99.8108 H6            1 RES     
    4634 H6         -51.1856   -47.3223    97.4761 H6            1 RES     
    4635 H6         -52.7519   -48.7419    98.4608 H6            1 RES     
    4636 H6         -52.8413   -47.7443    99.9442 H6            1 RES     
    4637 H6         -54.8405   -47.6044    98.5408 H6            1 RES     
    4638 H6         -54.0663   -46.0036    98.8245 H6            1 RES     
    4639 H6         -53.3351   -45.8740    96.5446 H6            1 RES     
    4640 H6         -53.6197   -47.6000    96.2178 H6            1 RES     
    4641 H6         -55.2085   -46.0665    95.1071 H6            1 RES     
    4642 H6         -55.9945   -47.1741    96.2982 H6            1 RES     
    4643 H6         -55.9447   -45.3169    97.9952 H6            1 RES     
    4644 H6         -55.3012   -44.1770    96.7563 H6            1 RES     
    4645 H6         -57.4161   -44.5166    95.4298 H6            1 RES     
    4646 H6         -57.9015   -45.8405    96.5699 H6            1 RES     
    4647 H6         -57.5721   -42.9003    97.2708 H6            1 RES     
    4648 H6         -57.8746   -44.2283    98.4861 H6            1 RES     
    4649 H6         -59.7096   -43.3601    96.1959 H6            1 RES     
    4650 H6         -59.9349   -43.0767    97.9726 H6            1 RES     
    4651 H6         -59.9939   -44.7614    97.3237 H6            1 RES     
    4652 H6         -50.2547   -47.9035   100.2682 H6            1 RES     
    4653 H6         -49.2616   -47.3412    98.8902 H6            1 RES     
    4654 H6         -49.5474   -49.3547    97.5864 H6            1 RES     
    4655 H6         -48.7705   -49.5595    99.1399 H6            1 RES     
    4656 H6         -51.5445   -50.6801    98.4392 H6            1 RES     
    4657 H6         -49.9810   -51.5116    98.6594 H6            1 RES     
    4658 H6         -51.5904   -50.0071   100.7751 H6            1 RES     
    4659 H6         -49.9078   -50.6204   101.0652 H6            1 RES     
    4660 H6         -50.5817   -52.9460   100.8128 H6            1 RES     
    4661 H6         -52.2101   -52.4801   100.2198 H6            1 RES     
    4662 H6         -52.4011   -53.1801   102.5668 H6            1 RES     
    4663 H6         -52.8418   -51.4710   102.3169 H6            1 RES     
    4664 H6         -51.6348   -51.6064   104.3890 H6            1 RES     
    4665 H6         -50.6453   -50.7124   103.2268 H6            1 RES     
    4666 H6         -49.2149   -52.7424   102.8466 H6            1 RES     
    4667 H6         -49.2393   -52.1985   104.5543 H6            1 RES     
    4668 H6         -50.8032   -54.6075   103.4091 H6            1 RES     
    4669 H6         -49.3113   -54.6501   104.4022 H6            1 RES     
    4670 H6         -50.5279   -53.5892   106.3213 H6            1 RES     
    4671 H6         -52.0568   -53.5968   105.3493 H6            1 RES     
    4672 H6         -51.2768   -55.1449   105.7987 H6            1 RES     
    4673 C0         -57.8731   -32.2263   105.4730 C0            1 RES     
    4674 C0         -58.9241   -33.7096   105.1315 C0            1 RES     
    4675 C0         -58.7691   -34.6167   106.1720 C0            1 RES     
    4676 S1         -59.4079   -36.1888   105.9033 S1            1 RES     
    4677 C0         -60.0335   -36.0808   104.3696 C0            1 RES     
    4678 C0         -59.7142   -34.5909   104.0564 C0            1 RES     
    4679 C0         -57.6230   -34.2940   107.0230 C0            1 RES     
    4680 C0         -56.9604   -33.3641   106.0195 C0            1 RES     
    4681 C0         -56.0329   -34.0257   105.2752 C0            1 RES     
    4682 C0         -55.7582   -35.3294   105.6812 C0            1 RES     
    4683 S1         -56.6151   -35.8252   107.1509 S1            1 RES     
    4684 H2         -59.9315   -34.2535   103.0501 H2            1 RES     
    4685 H2         -55.6774   -33.6750   104.3202 H2            1 RES     
    4686 N3         -60.6960   -40.0152   104.1821 N3            1 RES     
    4687 C0         -60.2867   -38.7741   104.4864 C0            1 RES     
    4688 C0         -60.6547   -37.5394   103.7709 C0            1 RES     
    4689 C0         -61.5447   -37.9092   102.6504 C0            1 RES     
    4690 N3         -62.0891   -37.0299   101.7507 N3            1 RES     
    4691 S1         -63.0129   -37.9996   100.7599 S1            1 RES     
    4692 N3         -62.7729   -39.5211   101.3578 N3            1 RES     
    4693 C0         -61.9470   -39.2929   102.3877 C0            1 RES     
    4694 C0         -61.5192   -40.3514   103.1511 C0            1 RES     
    4695 H4         -59.6286   -38.7441   105.3262 H4            1 RES     
    4696 C5         -52.3644   -17.6324   117.0005 C5            1 RES     
    4697 C5         -53.0211   -18.7466   116.1370 C5            1 RES     
    4698 C5         -52.6972   -18.6367   114.6108 C5            1 RES     
    4699 C5         -53.0479   -19.8836   113.6618 C5            1 RES     
    4700 C5         -54.5473   -20.2140   113.2506 C5            1 RES     
    4701 C5         -54.9921   -21.6231   112.4803 C5            1 RES     
    4702 C5         -54.7814   -22.0245   110.8902 C5            1 RES     
    4703 C5         -55.5358   -23.3008   109.9511 C5            1 RES     
    4704 C5         -55.1693   -24.9429   109.6697 C5            1 RES     
    4705 C5         -55.8643   -26.3882   108.8499 C5            1 RES     
    4706 C5         -55.9029   -27.1430   107.2364 C5            1 RES     
    4707 C5         -55.6789   -25.7747   106.3696 C5            1 RES     
    4708 C5         -56.6446   -24.5165   106.5527 C5            1 RES     
    4709 C5         -56.0527   -23.1134   106.0953 C5            1 RES     
    4710 C5         -57.0624   -21.9023   106.1042 C5            1 RES     
    4711 C5         -58.3797   -22.1774   105.3465 C5            1 RES     
    4712 C5         -58.1843   -22.6589   103.8884 C5            1 RES     
    4713 C5         -58.6554   -21.6987   102.7900 C5            1 RES     
    4714 C5         -57.9581   -20.3428   102.7852 C5            1 RES     
    4715 C5         -56.3920   -28.8509   106.3734 C5            1 RES     
    4716 C0         -57.5047   -30.4609   106.3379 C0            1 RES     
    4717 C5         -58.8370   -29.8992   106.8971 C5            1 RES     
    4718 C5         -58.7230   -28.8694   108.1226 C5            1 RES     
    4719 C5         -58.6201   -29.5621   109.4923 C5            1 RES     
    4720 C5         -57.5547   -30.6708   109.6535 C5            1 RES     
    4721 C5         -56.1100   -30.2810   109.2718 C5            1 RES     
    4722 C5         -55.0402   -31.2529   109.7523 C5            1 RES     
    4723 C5         -55.3128   -32.6883   109.3012 C5            1 RES     
    4724 C5         -54.3691   -33.6583   110.0045 C5            1 RES     
    4725 C5         -54.8648   -35.0824   109.7929 C5            1 RES     
    4726 C5         -54.1087   -36.0940   110.6233 C5            1 RES     
    4727 C5         -59.8600   -27.7928   108.0670 C5            1 RES     
    4728 C5         -59.7634   -26.4229   108.8420 C5            1 RES     
    4729 C5         -59.9629   -26.3052   110.3777 C5            1 RES     
    4730 C5         -61.2792   -26.9401   110.8443 C5            1 RES     
    4731 C5         -61.6671   -26.5731   112.2945 C5            1 RES     
    4732 C5         -62.7689   -27.5043   112.8467 C5            1 RES     
    4733 C5         -64.0805   -27.5584   112.0356 C5            1 RES     
    4734 C5         -64.9097   -26.2606   112.0309 C5            1 RES     
    4735 C5         -65.4063   -25.8022   113.4164 C5            1 RES     
    4736 C5         -66.3008   -26.8312   114.1135 C5            1 RES     
    4737 H6         -51.2533   -17.6546   116.9236 H6            1 RES     
    4738 H6         -52.7122   -16.6146   116.7225 H6            1 RES     
    4739 H6         -52.6059   -17.7810   118.0804 H6            1 RES     
    4740 H6         -52.6204   -19.7052   116.5276 H6            1 RES     
    4741 H6         -54.1169   -18.7162   116.3036 H6            1 RES     
    4742 H6         -53.1049   -17.6768   114.2207 H6            1 RES     
    4743 H6         -51.5861   -18.5332   114.5822 H6            1 RES     
    4744 H6         -52.6059   -20.7681   114.1601 H6            1 RES     
    4745 H6         -52.5002   -19.6987   112.7160 H6            1 RES     
    4746 H6         -54.9560   -19.3196   112.7239 H6            1 RES     
    4747 H6         -55.0691   -20.2248   114.2375 H6            1 RES     
    4748 H6         -56.0973   -21.5839   112.6022 H6            1 RES     
    4749 H6         -54.6164   -22.4407   113.1194 H6            1 RES     
    4750 H6         -55.1810   -21.0859   110.4312 H6            1 RES     
    4751 H6         -53.6926   -21.9869   110.6810 H6            1 RES     
    4752 H6         -55.4680   -22.8262   108.9503 H6            1 RES     
    4753 H6         -56.6016   -23.1976   110.2476 H6            1 RES     
    4754 H6         -54.1009   -24.9123   109.3719 H6            1 RES     
    4755 H6         -55.1864   -25.2633   110.7313 H6            1 RES     
    4756 H6         -56.8928   -26.3818   109.2235 H6            1 RES     
    4757 H6         -55.3457   -27.1639   109.4287 H6            1 RES     
    4758 H6         -54.8248   -27.4180   107.2019 H6            1 RES     
    4759 H6         -55.4787   -25.9652   105.2962 H6            1 RES     
    4760 H6         -54.7137   -25.3460   106.7490 H6            1 RES     
    4761 H6         -56.9223   -24.3600   107.6138 H6            1 RES     
    4762 H6         -57.5612   -24.7416   105.9857 H6            1 RES     
    4763 H6         -55.6157   -23.1959   105.0862 H6            1 RES     
    4764 H6         -55.1926   -22.8093   106.7364 H6            1 RES     
    4765 H6         -56.5751   -20.9963   105.6691 H6            1 RES     
    4766 H6         -57.3335   -21.6331   107.1515 H6            1 RES     
    4767 H6         -58.8903   -22.9776   105.9173 H6            1 RES     
    4768 H6         -59.0826   -21.3139   105.3939 H6            1 RES     
    4769 H6         -57.1426   -22.9551   103.6810 H6            1 RES     
    4770 H6         -58.7895   -23.5814   103.7656 H6            1 RES     
    4771 H6         -59.7506   -21.5425   102.8830 H6            1 RES     
    4772 H6         -58.4575   -22.1970   101.8149 H6            1 RES     
    4773 H6         -56.8589   -20.4611   102.6917 H6            1 RES     
    4774 H6         -58.3286   -19.7591   101.9141 H6            1 RES     
    4775 H6         -58.1979   -19.7765   103.7084 H6            1 RES     
    4776 H6         -55.3897   -29.3364   106.3530 H6            1 RES     
    4777 H6         -56.4458   -28.5171   105.3156 H6            1 RES     
    4778 H6         -59.2586   -29.3786   106.0159 H6            1 RES     
    4779 H6         -59.5106   -30.7360   107.1677 H6            1 RES     
    4780 H6         -57.8480   -28.2510   108.0498 H6            1 RES     
    4781 H6         -58.4121   -28.7848   110.2487 H6            1 RES     
    4782 H6         -59.5999   -30.0185   109.7284 H6            1 RES     
    4783 H6         -57.5736   -30.9603   110.7248 H6            1 RES     
    4784 H6         -57.8712   -31.5461   109.0483 H6            1 RES     
    4785 H6         -56.0081   -30.2947   108.2046 H6            1 RES     
    4786 H6         -55.8634   -29.2794   109.6589 H6            1 RES     
    4787 H6         -54.0447   -30.9281   109.3695 H6            1 RES     
    4788 H6         -55.0299   -31.2011   110.8589 H6            1 RES     
    4789 H6         -56.3358   -32.9607   109.6221 H6            1 RES     
    4790 H6         -55.2511   -32.7881   108.1932 H6            1 RES     
    4791 H6         -53.3262   -33.5341   109.6376 H6            1 RES     
    4792 H6         -54.4036   -33.4463   111.0936 H6            1 RES     
    4793 H6         -54.7279   -35.3350   108.7329 H6            1 RES     
    4794 H6         -55.9402   -35.1470   110.0846 H6            1 RES     
    4795 H6         -53.0451   -36.1126   110.3139 H6            1 RES     
    4796 H6         -54.5621   -37.0951   110.4595 H6            1 RES     
    4797 H6         -54.1942   -35.8340   111.6991 H6            1 RES     
    4798 H6         -60.8419   -28.2683   108.2400 H6            1 RES     
    4799 H6         -59.8394   -27.4409   107.0106 H6            1 RES     
    4800 H6         -58.8357   -25.8876   108.5647 H6            1 RES     
    4801 H6         -60.5758   -25.7952   108.4153 H6            1 RES     
    4802 H6         -59.1109   -26.7272   110.9504 H6            1 RES     
    4803 H6         -59.9940   -25.2137   110.6131 H6            1 RES     
    4804 H6         -61.1493   -28.0377   110.7537 H6            1 RES     
    4805 H6         -62.1067   -26.6062   110.1829 H6            1 RES     
    4806 H6         -61.9818   -25.5054   112.3507 H6            1 RES     
    4807 H6         -60.7863   -26.6959   112.9618 H6            1 RES     
    4808 H6         -62.9886   -27.2423   113.9033 H6            1 RES     
    4809 H6         -62.3460   -28.5320   112.8537 H6            1 RES     
    4810 H6         -64.7071   -28.3790   112.4407 H6            1 RES     
    4811 H6         -63.8527   -27.8425   110.9877 H6            1 RES     
    4812 H6         -64.3137   -25.4432   111.5732 H6            1 RES     
    4813 H6         -65.7994   -26.4279   111.3840 H6            1 RES     
    4814 H6         -64.5470   -25.5563   114.0733 H6            1 RES     
    4815 H6         -65.9999   -24.8727   113.2761 H6            1 RES     
    4816 H6         -67.1797   -27.0762   113.4797 H6            1 RES     
    4817 H6         -65.7406   -27.7611   114.3412 H6            1 RES     
    4818 H6         -66.6638   -26.4142   115.0765 H6            1 RES     
    4819 C0         -60.5938   -45.2829   101.8097 C0            1 RES     
    4820 C0         -60.1268   -44.9393   103.5662 C0            1 RES     
    4821 C0         -61.2776   -44.6407   104.2846 C0            1 RES     
    4822 S1         -61.0376   -43.9860   105.8548 S1            1 RES     
    4823 C0         -59.3840   -43.9210   105.9838 C0            1 RES     
    4824 C0         -58.9858   -44.5295   104.6087 C0            1 RES     
    4825 C0         -62.4219   -44.3723   103.4126 C0            1 RES     
    4826 C0         -61.5925   -44.1400   102.1601 C0            1 RES     
    4827 C0         -61.3342   -42.8159   101.9809 C0            1 RES     
    4828 C0         -62.0012   -41.9530   102.8470 C0            1 RES     
    4829 S1         -63.1270   -42.7628   103.9504 S1            1 RES     
    4830 H2         -57.9297   -44.5233   104.3674 H2            1 RES     
    4831 H2         -60.5270   -42.4453   101.3706 H2            1 RES     
    4832 N3         -59.5635   -41.8198   109.3759 N3            1 RES     
    4833 C0         -59.8043   -42.4353   108.2082 C0            1 RES     
    4834 C0         -58.8288   -43.2053   107.4160 C0            1 RES     
    4835 C0         -57.5339   -43.1704   108.1276 C0            1 RES     
    4836 N3         -56.3788   -43.7690   107.6958 N3            1 RES     
    4837 S1         -55.2812   -43.4256   108.9011 S1            1 RES     
    4838 N3         -56.1455   -42.5190   109.9786 N3            1 RES     
    4839 C0         -57.3553   -42.4751   109.4045 C0            1 RES     
    4840 C0         -58.3699   -41.7931   110.0302 C0            1 RES     
    4841 H4         -60.8085   -42.3114   107.8685 H4            1 RES     
    4842 C5         -71.0069   -54.9518    88.6076 C5            1 RES     
    4843 C5         -70.1432   -54.3810    89.7682 C5            1 RES     
    4844 C5         -68.8337   -53.6711    89.2913 C5            1 RES     
    4845 C5         -68.0198   -52.7761    90.3472 C5            1 RES     
    4846 C5         -67.1569   -53.4419    91.5042 C5            1 RES     
    4847 C5         -66.4986   -52.5741    92.7653 C5            1 RES     
    4848 C5         -65.1664   -51.5952    92.7417 C5            1 RES     
    4849 C5         -64.2225   -50.9612    94.0785 C5            1 RES     
    4850 C5         -64.3385   -49.5703    95.0594 C5            1 RES     
    4851 C5         -63.5511   -48.8327    96.5016 C5            1 RES     
    4852 C5         -62.1614   -47.7923    96.9028 C5            1 RES     
    4853 C5         -61.2368   -48.1867    95.6132 C5            1 RES     
    4854 C5         -60.8744   -49.7086    95.2943 C5            1 RES     
    4855 C5         -60.4531   -50.0232    93.7937 C5            1 RES     
    4856 C5         -59.9215   -51.4817    93.5173 C5            1 RES     
    4857 C5         -58.7953   -51.9313    94.4737 C5            1 RES     
    4858 C5         -57.5913   -50.9604    94.5370 C5            1 RES     
    4859 C5         -56.2669   -51.4876    93.9726 C5            1 RES     
    4860 C5         -56.3076   -51.8658    92.4960 C5            1 RES     
    4861 C5         -61.4465   -46.7321    98.4081 C5            1 RES     
    4862 C0         -61.2589   -46.4626   100.3378 C0            1 RES     
    4863 C5         -61.2175   -47.9325   100.8284 C5            1 RES     
    4864 C5         -62.2348   -48.9532   100.1223 C5            1 RES     
    4865 C5         -63.6387   -48.9461   100.7513 C5            1 RES     
    4866 C5         -64.3318   -47.5763   100.9351 C5            1 RES     
    4867 C5         -64.4348   -46.6955    99.6707 C5            1 RES     
    4868 C5         -65.4036   -45.5260    99.7868 C5            1 RES     
    4869 C5         -65.1050   -44.6406   100.9971 C5            1 RES     
    4870 C5         -66.2343   -43.6398   101.2194 C5            1 RES     
    4871 C5         -66.0758   -43.0016   102.5928 C5            1 RES     
    4872 C5         -67.2619   -42.1493   102.9818 C5            1 RES     
    4873 C5         -61.6185   -50.3902   100.0216 C5            1 RES     
    4874 C5         -62.1632   -51.4730    99.0129 C5            1 RES     
    4875 C5         -63.4917   -52.2452    99.2385 C5            1 RES     
    4876 C5         -63.5493   -52.9144   100.6177 C5            1 RES     
    4877 C5         -64.6947   -53.9416   100.7633 C5            1 RES     
    4878 C5         -64.9518   -54.3083   102.2416 C5            1 RES     
    4879 C5         -63.7454   -54.8741   103.0198 C5            1 RES     
    4880 C5         -63.2524   -56.2590   102.5607 C5            1 RES     
    4881 C5         -64.2858   -57.3947   102.6982 C5            1 RES     
    4882 C5         -64.7649   -57.6109   104.1365 C5            1 RES     
    4883 H6         -71.3341   -54.1501    87.9068 H6            1 RES     
    4884 H6         -70.4746   -55.7308    88.0213 H6            1 RES     
    4885 H6         -71.9397   -55.4178    89.0068 H6            1 RES     
    4886 H6         -70.7893   -53.6444    90.2896 H6            1 RES     
    4887 H6         -69.9030   -55.2102    90.4641 H6            1 RES     
    4888 H6         -68.1854   -54.4136    88.7734 H6            1 RES     
    4889 H6         -69.1868   -52.9666    88.5007 H6            1 RES     
    4890 H6         -68.7688   -52.0974    90.7992 H6            1 RES     
    4891 H6         -67.3141   -52.1727    89.7416 H6            1 RES     
    4892 H6         -66.3920   -54.0938    91.0200 H6            1 RES     
    4893 H6         -67.8836   -54.1525    91.9658 H6            1 RES     
    4894 H6         -66.2124   -53.3989    93.4550 H6            1 RES     
    4895 H6         -67.3440   -52.0345    93.2258 H6            1 RES     
    4896 H6         -64.4606   -52.2935    92.2263 H6            1 RES     
    4897 H6         -65.3547   -50.7982    91.9933 H6            1 RES     
    4898 H6         -63.2522   -50.8488    93.5518 H6            1 RES     
    4899 H6         -64.1019   -51.8633    94.7159 H6            1 RES     
    4900 H6         -64.4388   -48.7505    94.3186 H6            1 RES     
    4901 H6         -65.3598   -49.7678    95.4440 H6            1 RES     
    4902 H6         -63.5293   -49.6763    97.1981 H6            1 RES     
    4903 H6         -64.3854   -48.1998    96.8318 H6            1 RES     
    4904 H6         -62.5538   -46.8690    96.4205 H6            1 RES     
    4905 H6         -60.3459   -47.5371    95.4991 H6            1 RES     
    4906 H6         -61.8657   -47.9365    94.7181 H6            1 RES     
    4907 H6         -61.7314   -50.3852    95.4822 H6            1 RES     
    4908 H6         -60.0592   -49.9856    95.9805 H6            1 RES     
    4909 H6         -59.6896   -49.3034    93.4544 H6            1 RES     
    4910 H6         -61.3048   -49.8618    93.0925 H6            1 RES     
    4911 H6         -59.5578   -51.5619    92.4643 H6            1 RES     
    4912 H6         -60.7512   -52.2199    93.6135 H6            1 RES     
    4913 H6         -59.2600   -51.9835    95.4778 H6            1 RES     
    4914 H6         -58.4601   -52.9747    94.2709 H6            1 RES     
    4915 H6         -57.8143   -49.9855    94.0728 H6            1 RES     
    4916 H6         -57.4007   -50.7465    95.6094 H6            1 RES     
    4917 H6         -55.9401   -52.3688    94.5633 H6            1 RES     
    4918 H6         -55.5120   -50.6809    94.1061 H6            1 RES     
    4919 H6         -56.6297   -51.0055    91.8737 H6            1 RES     
    4920 H6         -55.2850   -52.1693    92.1817 H6            1 RES     
    4921 H6         -56.9896   -52.7249    92.3312 H6            1 RES     
    4922 H6         -61.8565   -45.7328    98.1359 H6            1 RES     
    4923 H6         -60.4015   -46.5930    98.0591 H6            1 RES     
    4924 H6         -60.1768   -48.2274   100.5934 H6            1 RES     
    4925 H6         -61.3528   -47.9633   101.9274 H6            1 RES     
    4926 H6         -62.3863   -48.7192    99.0853 H6            1 RES     
    4927 H6         -64.2944   -49.5715   100.1200 H6            1 RES     
    4928 H6         -63.5766   -49.4138   101.7520 H6            1 RES     
    4929 H6         -65.3569   -47.7980   101.2984 H6            1 RES     
    4930 H6         -63.7918   -47.0184   101.7286 H6            1 RES     
    4931 H6         -63.4884   -46.2271    99.4857 H6            1 RES     
    4932 H6         -64.7299   -47.3013    98.7990 H6            1 RES     
    4933 H6         -65.3557   -44.9108    98.8582 H6            1 RES     
    4934 H6         -66.4206   -45.9562    99.8762 H6            1 RES     
    4935 H6         -65.0783   -45.2850   101.8959 H6            1 RES     
    4936 H6         -64.1196   -44.1303   100.8981 H6            1 RES     
    4937 H6         -66.2478   -42.8713   100.4151 H6            1 RES     
    4938 H6         -67.1953   -44.1955   101.2134 H6            1 RES     
    4939 H6         -65.1841   -42.3610   102.5679 H6            1 RES     
    4940 H6         -65.9724   -43.8025   103.3632 H6            1 RES     
    4941 H6         -67.3571   -41.2975   102.2799 H6            1 RES     
    4942 H6         -67.0991   -41.7668   104.0122 H6            1 RES     
    4943 H6         -68.1852   -42.7653   102.9701 H6            1 RES     
    4944 H6         -61.5003   -50.8243   101.0305 H6            1 RES     
    4945 H6         -60.5985   -50.2122    99.6115 H6            1 RES     
    4946 H6         -62.1571   -51.0757    97.9803 H6            1 RES     
    4947 H6         -61.3870   -52.2688    99.0011 H6            1 RES     
    4948 H6         -64.3860   -51.6056    99.0863 H6            1 RES     
    4949 H6         -63.5347   -53.0421    98.4569 H6            1 RES     
    4950 H6         -63.6759   -52.0990   101.3586 H6            1 RES     
    4951 H6         -62.5951   -53.4491   100.8104 H6            1 RES     
    4952 H6         -64.4751   -54.8518   100.1587 H6            1 RES     
    4953 H6         -65.6419   -53.5059   100.3768 H6            1 RES     
    4954 H6         -65.8095   -55.0103   102.3117 H6            1 RES     
    4955 H6         -65.2621   -53.3725   102.7545 H6            1 RES     
    4956 H6         -64.0191   -54.9321   104.0930 H6            1 RES     
    4957 H6         -62.9018   -54.1558   102.9624 H6            1 RES     
    4958 H6         -62.9198   -56.2007   101.5030 H6            1 RES     
    4959 H6         -62.3643   -56.5250   103.1761 H6            1 RES     
    4960 H6         -65.1605   -57.2028   102.0437 H6            1 RES     
    4961 H6         -63.8064   -58.3363   102.3525 H6            1 RES     
    4962 H6         -63.9043   -57.8251   104.8056 H6            1 RES     
    4963 H6         -65.3130   -56.7238   104.5145 H6            1 RES     
    4964 H6         -65.4620   -58.4745   104.1686 H6            1 RES     
    4965 C0         -58.1981   -37.5547   113.0271 C0            1 RES     
    4966 C0         -59.9334   -38.0947   112.6830 C0            1 RES     
    4967 C0         -60.1427   -39.3326   113.2775 C0            1 RES     
    4968 S1         -61.5789   -40.1562   112.8186 S1            1 RES     
    4969 C0         -62.2760   -39.1141   111.7307 C0            1 RES     
    4970 C0         -61.2396   -37.9548   111.7714 C0            1 RES     
    4971 C0         -58.8913   -39.9655   113.6961 C0            1 RES     
    4972 C0         -57.9957   -39.0874   112.8374 C0            1 RES     
    4973 C0         -57.7242   -39.6818   111.6437 C0            1 RES     
    4974 C0         -58.1574   -40.9996   111.5186 C0            1 RES     
    4975 S1         -58.8964   -41.6609   112.9873 S1            1 RES     
    4976 H2         -61.3914   -37.1486   111.0638 H2            1 RES     
    4977 H2         -57.3926   -39.1411   110.7724 H2            1 RES     
    4978 N3         -65.0279   -41.8045   110.6620 N3            1 RES     
    4979 C0         -63.9569   -41.1533   111.1408 C0            1 RES     
    4980 C0         -63.6878   -39.7104   111.0076 C0            1 RES     
    4981 C0         -64.7994   -39.1076   110.2425 C0            1 RES     
    4982 N3         -64.9009   -37.7820   109.9087 N3            1 RES     
    4983 S1         -66.3518   -37.6893   109.0952 S1            1 RES     
    4984 N3         -66.9033   -39.2468   109.0884 N3            1 RES     
    4985 C0         -65.9370   -39.8915   109.7561 C0            1 RES     
    4986 C0         -66.0519   -41.2447   109.9608 C0            1 RES     
    4987 H4         -63.2681   -41.7938   111.6453 H4            1 RES     
    4988 C5         -43.7609   -33.7372   125.4049 C5            1 RES     
    4989 C5         -45.0534   -33.9317   124.5621 C5            1 RES     
    4990 C5         -44.9727   -33.3108   123.1290 C5            1 RES     
    4991 C5         -46.1025   -33.7059   122.0585 C5            1 RES     
    4992 C5         -47.5761   -33.1185   122.1563 C5            1 RES     
    4993 C5         -48.8441   -33.6778   121.2309 C5            1 RES     
    4994 C5         -49.1494   -33.3770   119.6340 C5            1 RES     
    4995 C5         -50.6236   -33.6211   118.7136 C5            1 RES     
    4996 C5         -51.2796   -34.9377   117.8497 C5            1 RES     
    4997 C5         -52.7799   -35.3928   116.9631 C5            1 RES     
    4998 C5         -53.4885   -35.2468   115.3348 C5            1 RES     
    4999 C5         -52.6861   -33.8941   114.8875 C5            1 RES     
    5000 C5         -52.7481   -32.5684   115.7750 C5            1 RES     
    5001 C5         -51.5603   -31.5330   115.5621 C5            1 RES     
    5002 C5         -51.7122   -30.1472   116.2987 C5            1 RES     
    5003 C5         -53.0620   -29.4430   116.0397 C5            1 RES     
    5004 C5         -53.4032   -29.2565   114.5414 C5            1 RES     
    5005 C5         -53.4319   -27.8119   114.0289 C5            1 RES     
    5006 C5         -52.1116   -27.0610   114.1619 C5            1 RES     
    5007 C5         -54.9731   -35.9783   114.2568 C5            1 RES     
    5008 C0         -56.7800   -36.7259   114.1683 C0            1 RES     
    5009 C5         -57.4670   -35.9483   115.3200 C5            1 RES     
    5010 C5         -56.6065   -35.7407   116.6586 C5            1 RES     
    5011 C5         -56.6868   -36.9347   117.6252 C5            1 RES     
    5012 C5         -56.4054   -38.3411   117.0477 C5            1 RES     
    5013 C5         -55.0705   -38.5056   116.2887 C5            1 RES     
    5014 C5         -54.6585   -39.9491   116.0310 C5            1 RES     
    5015 C5         -55.7491   -40.7469   115.3153 C5            1 RES     
    5016 C5         -55.4033   -42.2324   115.3013 C5            1 RES     
    5017 C5         -56.6314   -43.0292   114.8828 C5            1 RES     
    5018 C5         -56.4414   -44.5207   115.0383 C5            1 RES     
    5019 C5         -56.9474   -34.3748   117.3464 C5            1 RES     
    5020 C5         -55.9849   -33.6942   118.3938 C5            1 RES     
    5021 C5         -55.8363   -34.1969   119.8557 C5            1 RES     
    5022 C5         -57.1884   -34.3178   120.5703 C5            1 RES     
    5023 C5         -57.0692   -34.5050   122.0997 C5            1 RES     
    5024 C5         -58.3966   -34.9895   122.7234 C5            1 RES     
    5025 C5         -59.6280   -34.0920   122.4798 C5            1 RES     
    5026 C5         -59.5866   -32.7122   123.1628 C5            1 RES     
    5027 C5         -59.5159   -32.7514   124.7022 C5            1 RES     
    5028 C5         -60.7050   -33.4681   125.3481 C5            1 RES     
    5029 H6         -42.8781   -34.2110   124.9180 H6            1 RES     
    5030 H6         -43.5255   -32.6668   125.5863 H6            1 RES     
    5031 H6         -43.8674   -34.2263   126.4029 H6            1 RES     
    5032 H6         -45.1948   -35.0294   124.4776 H6            1 RES     
    5033 H6         -45.9048   -33.4981   125.1248 H6            1 RES     
    5034 H6         -44.8362   -32.2092   123.2169 H6            1 RES     
    5035 H6         -44.0125   -33.7081   122.7214 H6            1 RES     
    5036 H6         -46.1519   -34.8119   122.0751 H6            1 RES     
    5037 H6         -45.7043   -33.3833   121.0755 H6            1 RES     
    5038 H6         -47.4986   -32.0068   122.1052 H6            1 RES     
    5039 H6         -47.8501   -33.3350   123.2167 H6            1 RES     
    5040 H6         -49.7054   -33.2132   121.7602 H6            1 RES     
    5041 H6         -48.8878   -34.7650   121.4158 H6            1 RES     
    5042 H6         -49.0291   -32.2650   119.6521 H6            1 RES     
    5043 H6         -48.2729   -33.7356   119.0563 H6            1 RES     
    5044 H6         -50.4657   -32.8363   117.9450 H6            1 RES     
    5045 H6         -51.3894   -33.2018   119.4009 H6            1 RES     
    5046 H6         -50.4378   -35.2533   117.1994 H6            1 RES     
    5047 H6         -51.3010   -35.6516   118.6981 H6            1 RES     
    5048 H6         -53.5564   -35.0995   117.6761 H6            1 RES     
    5049 H6         -52.6934   -36.4836   117.0539 H6            1 RES     
    5050 H6         -52.7660   -35.9220   114.8237 H6            1 RES     
    5051 H6         -52.8004   -33.6539   113.8114 H6            1 RES     
    5052 H6         -51.5993   -34.1549   114.9887 H6            1 RES     
    5053 H6         -52.7180   -32.7954   116.8591 H6            1 RES     
    5054 H6         -53.7124   -32.0871   115.5499 H6            1 RES     
    5055 H6         -51.4109   -31.3418   114.4863 H6            1 RES     
    5056 H6         -50.5865   -31.9608   115.8966 H6            1 RES     
    5057 H6         -50.8818   -29.4629   115.9990 H6            1 RES     
    5058 H6         -51.6164   -30.2831   117.4010 H6            1 RES     
    5059 H6         -53.8311   -30.0948   116.4986 H6            1 RES     
    5060 H6         -53.1499   -28.4806   116.5948 H6            1 RES     
    5061 H6         -52.7499   -29.8552   113.8852 H6            1 RES     
    5062 H6         -54.4285   -29.6535   114.3884 H6            1 RES     
    5063 H6         -54.2249   -27.2478   114.5631 H6            1 RES     
    5064 H6         -53.7028   -27.8543   112.9504 H6            1 RES     
    5065 H6         -51.2944   -27.5971   113.6367 H6            1 RES     
    5066 H6         -52.2303   -26.0553   113.7022 H6            1 RES     
    5067 H6         -51.8455   -26.9241   115.2299 H6            1 RES     
    5068 H6         -54.4268   -36.7904   113.7248 H6            1 RES     
    5069 H6         -55.0016   -35.2242   113.4421 H6            1 RES     
    5070 H6         -57.6641   -34.9647   114.8521 H6            1 RES     
    5071 H6         -58.4376   -36.4231   115.5642 H6            1 RES     
    5072 H6         -55.5608   -35.6129   116.4503 H6            1 RES     
    5073 H6         -55.9647   -36.7570   118.4417 H6            1 RES     
    5074 H6         -57.7022   -36.9627   118.0639 H6            1 RES     
    5075 H6         -56.4094   -39.0345   117.9143 H6            1 RES     
    5076 H6         -57.2461   -38.6145   116.3762 H6            1 RES     
    5077 H6         -55.1662   -38.0870   115.3063 H6            1 RES     
    5078 H6         -54.2519   -38.0060   116.8310 H6            1 RES     
    5079 H6         -53.7268   -39.9655   115.4189 H6            1 RES     
    5080 H6         -54.4439   -40.4051   117.0175 H6            1 RES     
    5081 H6         -56.6842   -40.6501   115.8984 H6            1 RES     
    5082 H6         -55.9317   -40.3595   114.2867 H6            1 RES     
    5083 H6         -54.5415   -42.4330   114.6269 H6            1 RES     
    5084 H6         -55.1392   -42.5359   116.3358 H6            1 RES     
    5085 H6         -56.8296   -42.8154   113.8240 H6            1 RES     
    5086 H6         -57.4988   -42.7343   115.5203 H6            1 RES     
    5087 H6         -55.6327   -44.8673   114.3653 H6            1 RES     
    5088 H6         -57.3929   -45.0278   114.7698 H6            1 RES     
    5089 H6         -56.1946   -44.7584   116.0941 H6            1 RES     
    5090 H6         -57.9851   -34.3886   117.7246 H6            1 RES     
    5091 H6         -56.9049   -33.6401   116.5105 H6            1 RES     
    5092 H6         -54.9749   -33.5635   117.9614 H6            1 RES     
    5093 H6         -56.3688   -32.6566   118.5028 H6            1 RES     
    5094 H6         -55.2825   -35.1566   119.9209 H6            1 RES     
    5095 H6         -55.2189   -33.4371   120.3936 H6            1 RES     
    5096 H6         -57.7052   -35.1903   120.1215 H6            1 RES     
    5097 H6         -57.7852   -33.3982   120.3922 H6            1 RES     
    5098 H6         -56.7254   -33.5588   122.5780 H6            1 RES     
    5099 H6         -56.3109   -35.2863   122.3248 H6            1 RES     
    5100 H6         -58.2614   -35.1579   123.8127 H6            1 RES     
    5101 H6         -58.6198   -35.9803   122.2722 H6            1 RES     
    5102 H6         -60.5296   -34.6348   122.8298 H6            1 RES     
    5103 H6         -59.7674   -33.9482   121.3886 H6            1 RES     
    5104 H6         -58.7202   -32.1350   122.7769 H6            1 RES     
    5105 H6         -60.5097   -32.1621   122.8741 H6            1 RES     
    5106 H6         -58.5724   -33.2312   125.0339 H6            1 RES     
    5107 H6         -59.5080   -31.7024   125.0705 H6            1 RES     
    5108 H6         -61.6603   -32.9891   125.0443 H6            1 RES     
    5109 H6         -60.7264   -34.5414   125.0691 H6            1 RES     
    5110 H6         -60.6160   -33.4108   126.4534 H6            1 RES     
    5111 C0         -68.2447   -44.9006   106.9941 C0            1 RES     
    5112 C0         -67.3913   -45.6198   108.4691 C0            1 RES     
    5113 C0         -68.0504   -45.1981   109.6169 C0            1 RES     
    5114 S1         -67.2396   -45.4917   111.1029 S1            1 RES     
    5115 C0         -65.8324   -46.2288   110.6215 C0            1 RES     
    5116 C0         -66.0650   -46.2677   109.0840 C0            1 RES     
    5117 C0         -68.9760   -44.0960   109.3517 C0            1 RES     
    5118 C0         -68.3707   -43.7245   108.0077 C0            1 RES     
    5119 C0         -67.4546   -42.7270   108.1407 C0            1 RES     
    5120 C0         -67.3822   -42.1449   109.4039 C0            1 RES     
    5121 S1         -68.5735   -42.7692   110.5577 S1            1 RES     
    5122 H2         -65.2377   -46.6221   108.4809 H2            1 RES     
    5123 H2         -66.6878   -42.5235   107.4113 H2            1 RES     
    5124 N3         -64.2703   -46.0195   114.2916 N3            1 RES     
    5125 C0         -64.9954   -45.8739   113.1721 C0            1 RES     
    5126 C0         -64.7525   -46.5528   111.8867 C0            1 RES     
    5127 C0         -63.5615   -47.4137   112.0432 C0            1 RES     
    5128 N3         -63.0192   -48.1985   111.0588 N3            1 RES     
    5129 S1         -61.7391   -48.9513   111.8138 S1            1 RES     
    5130 N3         -61.7697   -48.3418   113.3493 N3            1 RES     
    5131 C0         -62.8254   -47.5182   113.3053 C0            1 RES     
    5132 C0         -63.1757   -46.8167   114.4329 C0            1 RES     
    5133 H4         -65.8014   -45.1828   113.2818 H4            1 RES     
    5134 C5         -84.2260   -41.9694    96.4006 C5            1 RES     
    5135 C5         -83.0181   -42.4219    97.2695 C5            1 RES     
    5136 C5         -81.6316   -42.2350    96.5704 C5            1 RES     
    5137 C5         -80.3014   -42.3663    97.4602 C5            1 RES     
    5138 C5         -79.7802   -43.7804    97.9649 C5            1 RES     
    5139 C5         -78.5593   -43.9554    99.0855 C5            1 RES     
    5140 C5         -76.9324   -43.7704    98.8559 C5            1 RES     
    5141 C5         -75.5957   -44.2872    99.8689 C5            1 RES     
    5142 C5         -74.7622   -43.5880   101.1828 C5            1 RES     
    5143 C5         -73.4789   -44.0019   102.3770 C5            1 RES     
    5144 C5         -71.7029   -43.9831   102.5185 C5            1 RES     
    5145 C5         -71.3732   -44.1257   100.9233 C5            1 RES     
    5146 C5         -71.9719   -45.3301   100.0631 C5            1 RES     
    5147 C5         -72.0429   -45.0944    98.4922 C5            1 RES     
    5148 C5         -72.4615   -46.3431    97.6250 C5            1 RES     
    5149 C5         -71.6375   -47.6159    97.9183 C5            1 RES     
    5150 C5         -70.1059   -47.4191    97.8107 C5            1 RES     
    5151 C5         -69.4069   -48.1641    96.6675 C5            1 RES     
    5152 C5         -69.8866   -47.7846    95.2708 C5            1 RES     
    5153 C5         -70.2900   -44.1417   103.8894 C5            1 RES     
    5154 C0         -69.6779   -44.8721   105.5992 C0            1 RES     
    5155 C5         -70.3801   -46.2541   105.5868 C5            1 RES     
    5156 C5         -71.8901   -46.2864   105.0440 C5            1 RES     
    5157 C5         -72.9318   -45.9403   106.1218 C5            1 RES     
    5158 C5         -72.7092   -44.6483   106.9413 C5            1 RES     
    5159 C5         -72.5079   -43.3545   106.1226 C5            1 RES     
    5160 C5         -72.6322   -42.0667   106.9263 C5            1 RES     
    5161 C5         -71.7035   -42.0465   108.1409 C5            1 RES     
    5162 C5         -72.0354   -40.8665   109.0485 C5            1 RES     
    5163 C5         -71.3319   -41.0496   110.3865 C5            1 RES     
    5164 C5         -71.7659   -40.0344   111.4188 C5            1 RES     
    5165 C5         -72.1994   -47.6338   104.3066 C5            1 RES     
    5166 C5         -73.4062   -47.7888   103.3035 C5            1 RES     
    5167 C5         -74.8830   -47.9041   103.7700 C5            1 RES     
    5168 C5         -75.0798   -49.0132   104.8114 C5            1 RES     
    5169 C5         -76.5613   -49.3726   105.0650 C5            1 RES     
    5170 C5         -76.7375   -50.2019   106.3562 C5            1 RES     
    5171 C5         -75.9410   -51.5215   106.4287 C5            1 RES     
    5172 C5         -76.3797   -52.6146   105.4364 C5            1 RES     
    5173 C5         -77.8311   -53.1044   105.6095 C5            1 RES     
    5174 C5         -78.1115   -53.7005   106.9918 C5            1 RES     
    5175 H6         -84.1613   -40.8886    96.1387 H6            1 RES     
    5176 H6         -84.3172   -42.5510    95.4586 H6            1 RES     
    5177 H6         -85.1821   -42.0980    96.9627 H6            1 RES     
    5178 H6         -83.0539   -41.7942    98.1842 H6            1 RES     
    5179 H6         -83.1699   -43.4834    97.5514 H6            1 RES     
    5180 H6         -81.5967   -42.8698    95.6562 H6            1 RES     
    5181 H6         -81.6563   -41.1786    96.2105 H6            1 RES     
    5182 H6         -80.4645   -41.7074    98.3350 H6            1 RES     
    5183 H6         -79.4878   -41.9385    96.8407 H6            1 RES     
    5184 H6         -79.5945   -44.4111    97.0637 H6            1 RES     
    5185 H6         -80.6936   -44.2185    98.4340 H6            1 RES     
    5186 H6         -78.6721   -45.0312    99.3461 H6            1 RES     
    5187 H6         -78.8768   -43.3661    99.9629 H6            1 RES     
    5188 H6         -76.8257   -44.3972    97.9356 H6            1 RES     
    5189 H6         -76.7645   -42.7334    98.4992 H6            1 RES     
    5190 H6         -74.8254   -44.3941    99.0772 H6            1 RES     
    5191 H6         -75.8950   -45.3269   100.1222 H6            1 RES     
    5192 H6         -74.5086   -42.5755   100.8067 H6            1 RES     
    5193 H6         -75.6441   -43.4618   101.8433 H6            1 RES     
    5194 H6         -73.8171   -44.9786   102.7363 H6            1 RES     
    5195 H6         -73.7565   -43.2869   103.1627 H6            1 RES     
    5196 H6         -71.5890   -42.8759   102.5088 H6            1 RES     
    5197 H6         -70.3038   -43.9622   100.6818 H6            1 RES     
    5198 H6         -71.8917   -43.2551   100.4411 H6            1 RES     
    5199 H6         -73.0168   -45.5624   100.3492 H6            1 RES     
    5200 H6         -71.3496   -46.2110   100.2842 H6            1 RES     
    5201 H6         -71.0748   -44.7199    98.1199 H6            1 RES     
    5202 H6         -72.7615   -44.2808    98.2376 H6            1 RES     
    5203 H6         -72.3777   -46.0982    96.5385 H6            1 RES     
    5204 H6         -73.5329   -46.5948    97.8023 H6            1 RES     
    5205 H6         -71.8850   -47.8976    98.9606 H6            1 RES     
    5206 H6         -71.9746   -48.4870    97.3103 H6            1 RES     
    5207 H6         -69.8221   -46.3545    97.7692 H6            1 RES     
    5208 H6         -69.6597   -47.8132    98.7476 H6            1 RES     
    5209 H6         -69.5337   -49.2578    96.8093 H6            1 RES     
    5210 H6         -68.3219   -47.9281    96.7404 H6            1 RES     
    5211 H6         -69.7726   -46.6953    95.0933 H6            1 RES     
    5212 H6         -69.2700   -48.3330    94.5253 H6            1 RES     
    5213 H6         -70.9462   -48.0797    95.1277 H6            1 RES     
    5214 H6         -70.1146   -43.0607   104.0938 H6            1 RES     
    5215 H6         -69.4154   -44.3397   103.2344 H6            1 RES     
    5216 H6         -69.7314   -46.8391   104.9070 H6            1 RES     
    5217 H6         -70.3314   -46.7067   106.5966 H6            1 RES     
    5218 H6         -72.0503   -45.5762   104.2546 H6            1 RES     
    5219 H6         -73.9153   -45.8576   105.6261 H6            1 RES     
    5220 H6         -72.9799   -46.7771   106.8440 H6            1 RES     
    5221 H6         -73.6110   -44.5299   107.5774 H6            1 RES     
    5222 H6         -71.8316   -44.8048   107.6031 H6            1 RES     
    5223 H6         -71.5049   -43.3252   105.7449 H6            1 RES     
    5224 H6         -73.2244   -43.3088   105.2870 H6            1 RES     
    5225 H6         -72.4010   -41.1957   106.2699 H6            1 RES     
    5226 H6         -73.6869   -41.9926   107.2571 H6            1 RES     
    5227 H6         -71.8947   -42.9600   108.7348 H6            1 RES     
    5228 H6         -70.6316   -42.0400   107.8368 H6            1 RES     
    5229 H6         -71.7495   -39.9042   108.5692 H6            1 RES     
    5230 H6         -73.1292   -40.8725   109.2377 H6            1 RES     
    5231 H6         -70.2526   -40.9330   110.2206 H6            1 RES     
    5232 H6         -71.5679   -42.0619   110.7931 H6            1 RES     
    5233 H6         -71.4841   -39.0165   111.0845 H6            1 RES     
    5234 H6         -71.2557   -40.2662   112.3783 H6            1 RES     
    5235 H6         -72.8633   -40.1015   111.5714 H6            1 RES     
    5236 H6         -72.1816   -48.4727   105.0250 H6            1 RES     
    5237 H6         -71.3334   -47.7632   103.6184 H6            1 RES     
    5238 H6         -73.3466   -47.0229   102.5072 H6            1 RES     
    5239 H6         -73.2152   -48.7466   102.7723 H6            1 RES     
    5240 H6         -75.2834   -46.9430   104.1549 H6            1 RES     
    5241 H6         -75.4852   -48.1587   102.8643 H6            1 RES     
    5242 H6         -74.6125   -48.6511   105.7497 H6            1 RES     
    5243 H6         -74.5660   -49.9370   104.4706 H6            1 RES     
    5244 H6         -76.9835   -49.9102   104.1846 H6            1 RES     
    5245 H6         -77.1554   -48.4430   105.2033 H6            1 RES     
    5246 H6         -77.8158   -50.4013   106.5313 H6            1 RES     
    5247 H6         -76.3900   -49.5635   107.1968 H6            1 RES     
    5248 H6         -76.0246   -51.9228   107.4592 H6            1 RES     
    5249 H6         -74.8631   -51.3088   106.2747 H6            1 RES     
    5250 H6         -76.2453   -52.2459   104.3977 H6            1 RES     
    5251 H6         -75.7030   -53.4876   105.5712 H6            1 RES     
    5252 H6         -78.5441   -52.2776   105.4135 H6            1 RES     
    5253 H6         -78.0169   -53.8963   104.8517 H6            1 RES     
    5254 H6         -77.4201   -54.5449   107.1994 H6            1 RES     
    5255 H6         -78.0069   -52.9350   107.7877 H6            1 RES     
    5256 H6         -79.1544   -54.0799   107.0267 H6            1 RES     
    5257 C0         -60.2055   -44.9213   118.2487 C0            1 RES     
    5258 C0         -61.9772   -44.4228   118.4320 C0            1 RES     
    5259 C0         -62.7390   -45.5594   118.6720 C0            1 RES     
    5260 S1         -64.4421   -45.3630   118.5602 S1            1 RES     
    5261 C0         -64.6083   -43.7595   118.1647 C0            1 RES     
    5262 C0         -63.1127   -43.3318   118.1545 C0            1 RES     
    5263 C0         -62.0007   -46.7914   118.3914 C0            1 RES     
    5264 C0         -60.9202   -46.1210   117.5585 C0            1 RES     
    5265 C0         -61.2194   -46.1735   116.2320 C0            1 RES     
    5266 C0         -62.3237   -46.9536   115.8975 C0            1 RES     
    5267 S1         -63.0582   -47.7954   117.2732 S1            1 RES     
    5268 H2         -62.9033   -42.3219   117.8228 H2            1 RES     
    5269 H2         -60.7885   -45.5113   115.4989 H2            1 RES     
    5270 N3         -68.5185   -44.1658   117.4588 N3            1 RES     
    5271 C0         -67.2061   -44.3441   117.6733 C0            1 RES     
    5272 C0         -66.2079   -43.2792   117.8775 C0            1 RES     
    5273 C0         -66.9042   -41.9784   117.7922 C0            1 RES     
    5274 N3         -66.3059   -40.7521   117.9229 N3            1 RES     
    5275 S1         -67.5700   -39.6775   117.7718 S1            1 RES     
    5276 N3         -68.8848   -40.6448   117.5156 N3            1 RES     
    5277 C0         -68.3460   -41.8708   117.5568 C0            1 RES     
    5278 C0         -69.1570   -42.9656   117.3846 C0            1 RES     
    5279 H4         -66.9176   -45.3717   117.6750 H4            1 RES     
    5280 C5         -44.3132   -53.8237   124.9118 C5            1 RES     
    5281 C5         -45.6118   -53.0299   124.5921 C5            1 RES     
    5282 C5         -45.4316   -51.9447   123.4805 C5            1 RES     
    5283 C5         -46.7450   -51.2778   122.8411 C5            1 RES     
    5284 C5         -47.6072   -50.2127   123.6462 C5            1 RES     
    5285 C5         -49.1012   -49.6773   123.1380 C5            1 RES     
    5286 C5         -49.4399   -48.5982   121.9320 C5            1 RES     
    5287 C5         -50.9269   -47.7284   121.5969 C5            1 RES     
    5288 C5         -52.3310   -48.0807   120.6944 C5            1 RES     
    5289 C5         -53.9507   -47.3787   120.3371 C5            1 RES     
    5290 C5         -54.7097   -46.2283   119.2079 C5            1 RES     
    5291 C5         -53.3763   -45.3297   118.9109 C5            1 RES     
    5292 C5         -52.5498   -44.6636   120.1035 C5            1 RES     
    5293 C5         -51.0399   -44.2866   119.7772 C5            1 RES     
    5294 C5         -50.2777   -43.4668   120.8878 C5            1 RES     
    5295 C5         -51.0314   -42.2067   121.3665 C5            1 RES     
    5296 C5         -51.4469   -41.2448   120.2271 C5            1 RES     
    5297 C5         -50.7519   -39.8784   120.2082 C5            1 RES     
    5298 C5         -49.2359   -39.9354   120.0545 C5            1 RES     
    5299 C5         -56.5005   -45.6636   118.5954 C5            1 RES     
    5300 C0         -58.4048   -45.4089   118.9700 C0            1 RES     
    5301 C5         -58.3503   -45.0113   120.4674 C5            1 RES     
    5302 C5         -57.3177   -45.8245   121.3882 C5            1 RES     
    5303 C5         -57.8902   -47.1493   121.9210 C5            1 RES     
    5304 C5         -58.5324   -48.1129   120.8966 C5            1 RES     
    5305 C5         -57.6552   -48.4934   119.6840 C5            1 RES     
    5306 C5         -58.1601   -49.6858   118.8821 C5            1 RES     
    5307 C5         -59.6078   -49.5078   118.4232 C5            1 RES     
    5308 C5         -60.1510   -50.8120   117.8484 C5            1 RES     
    5309 C5         -61.6628   -50.7046   117.7029 C5            1 RES     
    5310 C5         -62.3094   -52.0200   117.3336 C5            1 RES     
    5311 C5         -56.7287   -44.9151   122.5200 C5            1 RES     
    5312 C5         -55.3974   -45.2754   123.2846 C5            1 RES     
    5313 C5         -55.3202   -46.3825   124.3709 C5            1 RES     
    5314 C5         -56.3770   -46.1971   125.4675 C5            1 RES     
    5315 C5         -56.1381   -47.0754   126.7164 C5            1 RES     
    5316 C5         -57.3908   -47.1440   127.6175 C5            1 RES     
    5317 C5         -57.9380   -45.7924   128.1223 C5            1 RES     
    5318 C5         -57.0299   -45.0389   129.1119 C5            1 RES     
    5319 C5         -56.7470   -45.7848   130.4310 C5            1 RES     
    5320 C5         -58.0119   -46.1053   131.2324 C5            1 RES     
    5321 H6         -43.9330   -54.3665   124.0163 H6            1 RES     
    5322 H6         -43.4985   -53.1742   125.2970 H6            1 RES     
    5323 H6         -44.5112   -54.6015   125.6879 H6            1 RES     
    5324 H6         -46.3493   -53.7854   124.2494 H6            1 RES     
    5325 H6         -45.9766   -52.5661   125.5308 H6            1 RES     
    5326 H6         -44.6953   -51.1856   123.8292 H6            1 RES     
    5327 H6         -44.9329   -52.4973   122.6486 H6            1 RES     
    5328 H6         -47.3957   -52.1254   122.5510 H6            1 RES     
    5329 H6         -46.3986   -50.7654   121.9212 H6            1 RES     
    5330 H6         -46.9359   -49.3578   123.8972 H6            1 RES     
    5331 H6         -47.7809   -50.7318   124.6192 H6            1 RES     
    5332 H6         -49.4623   -49.1701   124.0601 H6            1 RES     
    5333 H6         -49.7099   -50.5874   122.9996 H6            1 RES     
    5334 H6         -48.7224   -47.7928   122.2281 H6            1 RES     
    5335 H6         -49.0155   -49.0081   120.9925 H6            1 RES     
    5336 H6         -50.4862   -46.8448   121.0901 H6            1 RES     
    5337 H6         -51.2097   -47.3688   122.6094 H6            1 RES     
    5338 H6         -51.9227   -48.4095   119.7165 H6            1 RES     
    5339 H6         -52.6081   -49.0048   121.2415 H6            1 RES     
    5340 H6         -54.3080   -47.1242   121.3396 H6            1 RES     
    5341 H6         -54.4702   -48.3074   120.0665 H6            1 RES     
    5342 H6         -54.5758   -46.8465   118.2919 H6            1 RES     
    5343 H6         -53.5091   -44.6137   118.0752 H6            1 RES     
    5344 H6         -52.6171   -46.0578   118.5203 H6            1 RES     
    5345 H6         -52.4772   -45.3356   120.9814 H6            1 RES     
    5346 H6         -53.1066   -43.7625   120.4038 H6            1 RES     
    5347 H6         -50.9845   -43.7254   118.8295 H6            1 RES     
    5348 H6         -50.4280   -45.1987   119.5854 H6            1 RES     
    5349 H6         -49.2683   -43.1671   120.5152 H6            1 RES     
    5350 H6         -50.0980   -44.1050   121.7839 H6            1 RES     
    5351 H6         -51.9472   -42.5790   121.8661 H6            1 RES     
    5352 H6         -50.4807   -41.6645   122.1695 H6            1 RES     
    5353 H6         -51.3505   -41.7083   119.2313 H6            1 RES     
    5354 H6         -52.5289   -41.0334   120.3570 H6            1 RES     
    5355 H6         -51.0011   -39.3260   121.1383 H6            1 RES     
    5356 H6         -51.1696   -39.3125   119.3459 H6            1 RES     
    5357 H6         -48.9499   -40.4808   119.1315 H6            1 RES     
    5358 H6         -48.8492   -38.8949   119.9873 H6            1 RES     
    5359 H6         -48.7714   -40.4210   120.9370 H6            1 RES     
    5360 H6         -56.5898   -46.3013   117.6864 H6            1 RES     
    5361 H6         -56.2365   -44.7012   118.1082 H6            1 RES     
    5362 H6         -58.0411   -43.9497   120.4155 H6            1 RES     
    5363 H6         -59.3670   -45.0612   120.9042 H6            1 RES     
    5364 H6         -56.4262   -46.0941   120.8536 H6            1 RES     
    5365 H6         -57.0709   -47.6925   122.4244 H6            1 RES     
    5366 H6         -58.6645   -46.9175   122.6765 H6            1 RES     
    5367 H6         -58.7811   -49.0367   121.4594 H6            1 RES     
    5368 H6         -59.4783   -47.6562   120.5372 H6            1 RES     
    5369 H6         -57.6588   -47.6883   118.9760 H6            1 RES     
    5370 H6         -56.6226   -48.7065   120.0038 H6            1 RES     
    5371 H6         -57.5064   -49.8380   117.9919 H6            1 RES     
    5372 H6         -58.0794   -50.5745   119.5386 H6            1 RES     
    5373 H6         -60.2243   -49.2785   119.3127 H6            1 RES     
    5374 H6         -59.7072   -48.6681   117.6977 H6            1 RES     
    5375 H6         -59.6665   -51.0493   116.8755 H6            1 RES     
    5376 H6         -59.9377   -51.6250   118.5735 H6            1 RES     
    5377 H6         -61.8760   -49.9799   116.9058 H6            1 RES     
    5378 H6         -62.1055   -50.3750   118.6730 H6            1 RES     
    5379 H6         -61.9490   -52.3482   116.3388 H6            1 RES     
    5380 H6         -63.4107   -51.8757   117.3021 H6            1 RES     
    5381 H6         -62.0702   -52.7835   118.1030 H6            1 RES     
    5382 H6         -57.5233   -44.6357   123.2347 H6            1 RES     
    5383 H6         -56.4208   -43.9898   121.9821 H6            1 RES     
    5384 H6         -54.5694   -45.4273   122.5665 H6            1 RES     
    5385 H6         -55.1183   -44.3455   123.8263 H6            1 RES     
    5386 H6         -55.3894   -47.4040   123.9423 H6            1 RES     
    5387 H6         -54.3086   -46.3021   124.8377 H6            1 RES     
    5388 H6         -57.3547   -46.4494   125.0089 H6            1 RES     
    5389 H6         -56.3832   -45.1377   125.8008 H6            1 RES     
    5390 H6         -55.2561   -46.7024   127.2867 H6            1 RES     
    5391 H6         -55.9157   -48.1194   126.4049 H6            1 RES     
    5392 H6         -57.1990   -47.8191   128.4781 H6            1 RES     
    5393 H6         -58.1946   -47.6171   127.0132 H6            1 RES     
    5394 H6         -58.9191   -45.9728   128.6069 H6            1 RES     
    5395 H6         -58.1472   -45.1337   127.2544 H6            1 RES     
    5396 H6         -56.0642   -44.8002   128.6188 H6            1 RES     
    5397 H6         -57.5252   -44.0741   129.3611 H6            1 RES     
    5398 H6         -56.1892   -46.7229   130.2328 H6            1 RES     
    5399 H6         -56.1001   -45.1345   131.0591 H6            1 RES     
    5400 H6         -58.5753   -45.1751   131.4593 H6            1 RES     
    5401 H6         -58.6690   -46.8084   130.6808 H6            1 RES     
    5402 H6         -57.7301   -46.5912   132.1902 H6            1 RES     
    5403 C0         -73.4501   -43.5278   114.5161 C0            1 RES     
    5404 C0         -72.9152   -45.1209   115.2890 C0            1 RES     
    5405 C0         -73.0357   -45.0112   116.6685 C0            1 RES     
    5406 S1         -72.2979   -46.2586   117.5913 S1            1 RES     
    5407 C0         -71.6343   -47.2406   116.4292 C0            1 RES     
    5408 C0         -72.0925   -46.4848   115.1491 C0            1 RES     
    5409 C0         -73.2233   -43.6257   117.1006 C0            1 RES     
    5410 C0         -72.7386   -43.0061   115.7998 C0            1 RES     
    5411 C0         -71.4162   -42.6924   115.8683 C0            1 RES     
    5412 C0         -70.8317   -42.8322   117.1247 C0            1 RES     
    5413 S1         -71.9657   -43.3054   118.4016 S1            1 RES     
    5414 H2         -71.7099   -46.8584   114.2069 H2            1 RES     
    5415 H2         -70.7940   -42.5483   115.0002 H2            1 RES     
    5416 N3         -69.6540   -49.3986   119.1448 N3            1 RES     
    5417 C0         -70.3450   -48.4673   118.4700 C0            1 RES     
    5418 C0         -70.7291   -48.5324   117.0486 C0            1 RES     
    5419 C0         -70.2084   -49.7989   116.4927 C0            1 RES     
    5420 N3         -70.3584   -50.2125   115.1945 N3            1 RES     
    5421 S1         -69.6092   -51.7002   115.1646 S1            1 RES     
    5422 N3         -69.0500   -51.8941   116.7072 N3            1 RES     
    5423 C0         -69.4628   -50.7664   117.3012 C0            1 RES     
    5424 C0         -69.1792   -50.5661   118.6299 C0            1 RES     
    5425 H4         -70.6027   -47.6215   119.0679 H4            1 RES     
    5426 C5         -86.5767   -29.4769   111.9707 C5            1 RES     
    5427 C5         -85.7016   -30.7491   112.1557 C5            1 RES     
    5428 C5         -84.5777   -30.9051   111.0793 C5            1 RES     
    5429 C5         -83.4214   -31.9904   111.3313 C5            1 RES     
    5430 C5         -83.6986   -33.5470   111.1693 C5            1 RES     
    5431 C5         -82.6187   -34.7207   111.6524 C5            1 RES     
    5432 C5         -81.2242   -35.1929   110.9000 C5            1 RES     
    5433 C5         -80.2566   -36.6364   111.1454 C5            1 RES     
    5434 C5         -78.9775   -37.0435   112.1982 C5            1 RES     
    5435 C5         -77.9673   -38.4636   112.6532 C5            1 RES     
    5436 C5         -76.4837   -39.2963   112.1238 C5            1 RES     
    5437 C5         -76.5493   -38.8440   110.5539 C5            1 RES     
    5438 C5         -77.8438   -39.1359   109.6662 C5            1 RES     
    5439 C5         -78.0231   -38.2227   108.3769 C5            1 RES     
    5440 C5         -79.1962   -38.6256   107.4033 C5            1 RES     
    5441 C5         -79.1817   -40.1119   106.9839 C5            1 RES     
    5442 C5         -77.8390   -40.5871   106.3778 C5            1 RES     
    5443 C5         -77.8643   -40.9682   104.8930 C5            1 RES     
    5444 C5         -78.2698   -39.8398   103.9511 C5            1 RES     
    5445 C5         -75.1978   -40.6532   112.7611 C5            1 RES     
    5446 C0         -74.8285   -42.2527   113.8273 C0            1 RES     
    5447 C5         -76.1701   -43.0140   113.6733 C5            1 RES     
    5448 C5         -77.5083   -42.1312   113.7462 C5            1 RES     
    5449 C5         -77.9944   -41.8803   115.1840 C5            1 RES     
    5450 C5         -76.9650   -41.3360   116.2011 C5            1 RES     
    5451 C5         -76.2147   -40.0527   115.7828 C5            1 RES     
    5452 C5         -75.4736   -39.3513   116.9136 C5            1 RES     
    5453 C5         -74.5091   -40.2855   117.6451 C5            1 RES     
    5454 C5         -73.9806   -39.6228   118.9130 C5            1 RES     
    5455 C5         -73.2929   -40.6708   119.7774 C5            1 RES     
    5456 C5         -72.9190   -40.1467   121.1450 C5            1 RES     
    5457 C5         -78.6260   -42.7169   112.8175 C5            1 RES     
    5458 C5         -79.8584   -41.8588   112.3363 C5            1 RES     
    5459 C5         -81.0537   -41.5038   113.2622 C5            1 RES     
    5460 C5         -81.6622   -42.7442   113.9291 C5            1 RES     
    5461 C5         -83.0307   -42.4826   114.5977 C5            1 RES     
    5462 C5         -83.4272   -43.6250   115.5587 C5            1 RES     
    5463 C5         -83.4965   -45.0375   114.9413 C5            1 RES     
    5464 C5         -84.6198   -45.2546   113.9103 C5            1 RES     
    5465 C5         -86.0489   -45.0723   114.4588 C5            1 RES     
    5466 C5         -86.3867   -46.0274   115.6070 C5            1 RES     
    5467 H6         -85.9667   -28.5467   112.0316 H6            1 RES     
    5468 H6         -87.1245   -29.4712   111.0044 H6            1 RES     
    5469 H6         -87.3387   -29.4046   112.7835 H6            1 RES     
    5470 H6         -85.2362   -30.6506   113.1586 H6            1 RES     
    5471 H6         -86.3688   -31.6347   112.1504 H6            1 RES     
    5472 H6         -85.0477   -31.0089   110.0752 H6            1 RES     
    5473 H6         -84.0700   -29.9110   111.0800 H6            1 RES     
    5474 H6         -83.0491   -31.7936   112.3553 H6            1 RES     
    5475 H6         -82.6191   -31.7410   110.6081 H6            1 RES     
    5476 H6         -84.0410   -33.7200   110.1218 H6            1 RES     
    5477 H6         -84.6122   -33.6936   111.7940 H6            1 RES     
    5478 H6         -83.2654   -35.6250   111.6097 H6            1 RES     
    5479 H6         -82.4107   -34.5111   112.7158 H6            1 RES     
    5480 H6         -81.6321   -35.3196   109.8662 H6            1 RES     
    5481 H6         -80.5695   -34.3004   110.8262 H6            1 RES     
    5482 H6         -79.8136   -36.7080   110.1304 H6            1 RES     
    5483 H6         -81.0367   -37.4270   111.1761 H6            1 RES     
    5484 H6         -78.2695   -36.1993   112.0683 H6            1 RES     
    5485 H6         -79.5219   -36.8492   113.1446 H6            1 RES     
    5486 H6         -78.7273   -39.2351   112.8100 H6            1 RES     
    5487 H6         -77.6718   -38.1329   113.6576 H6            1 RES     
    5488 H6         -75.7785   -38.4794   112.3965 H6            1 RES     
    5489 H6         -75.6240   -39.0815   109.9917 H6            1 RES     
    5490 H6         -76.5676   -37.7222   110.5758 H6            1 RES     
    5491 H6         -78.7802   -38.9827   110.2385 H6            1 RES     
    5492 H6         -77.7884   -40.1956   109.3726 H6            1 RES     
    5493 H6         -77.0845   -38.1929   107.7987 H6            1 RES     
    5494 H6         -78.1999   -37.1581   108.6571 H6            1 RES     
    5495 H6         -79.1663   -37.9888   106.4861 H6            1 RES     
    5496 H6         -80.1823   -38.4273   107.8838 H6            1 RES     
    5497 H6         -79.3728   -40.6853   107.9121 H6            1 RES     
    5498 H6         -80.0373   -40.3716   106.3187 H6            1 RES     
    5499 H6         -77.0237   -39.8643   106.5469 H6            1 RES     
    5500 H6         -77.5427   -41.5077   106.9227 H6            1 RES     
    5501 H6         -78.5514   -41.8277   104.7455 H6            1 RES     
    5502 H6         -76.8357   -41.2960   104.6233 H6            1 RES     
    5503 H6         -77.6013   -38.9623   104.0706 H6            1 RES     
    5504 H6         -78.1897   -40.2083   102.9048 H6            1 RES     
    5505 H6         -79.3217   -39.5382   104.1323 H6            1 RES     
    5506 H6         -74.4226   -39.9790   113.1919 H6            1 RES     
    5507 H6         -74.6983   -40.9026   111.8011 H6            1 RES     
    5508 H6         -76.0735   -43.4544   112.6624 H6            1 RES     
    5509 H6         -76.2193   -43.8372   114.4130 H6            1 RES     
    5510 H6         -77.3721   -41.1560   113.3175 H6            1 RES     
    5511 H6         -78.8312   -41.1612   115.1366 H6            1 RES     
    5512 H6         -78.3817   -42.8323   115.5939 H6            1 RES     
    5513 H6         -77.5339   -41.1281   117.1312 H6            1 RES     
    5514 H6         -76.2289   -42.1397   116.4128 H6            1 RES     
    5515 H6         -75.4399   -40.3049   115.0861 H6            1 RES     
    5516 H6         -76.9087   -39.3292   115.3258 H6            1 RES     
    5517 H6         -74.9072   -38.4829   116.5037 H6            1 RES     
    5518 H6         -76.2409   -38.9748   117.6184 H6            1 RES     
    5519 H6         -75.0764   -41.1770   117.9726 H6            1 RES     
    5520 H6         -73.6789   -40.6187   116.9809 H6            1 RES     
    5521 H6         -73.2905   -38.7860   118.6656 H6            1 RES     
    5522 H6         -74.8469   -39.2284   119.4842 H6            1 RES     
    5523 H6         -72.3734   -40.9829   119.2645 H6            1 RES     
    5524 H6         -73.9815   -41.5363   119.9277 H6            1 RES     
    5525 H6         -72.1783   -39.3293   121.0432 H6            1 RES     
    5526 H6         -72.4770   -40.9792   121.7335 H6            1 RES     
    5527 H6         -73.8280   -39.7822   121.6674 H6            1 RES     
    5528 H6         -78.9612   -43.6978   113.1990 H6            1 RES     
    5529 H6         -78.1008   -42.8944   111.8516 H6            1 RES     
    5530 H6         -79.5129   -40.9344   111.8361 H6            1 RES     
    5531 H6         -80.3185   -42.4536   111.5174 H6            1 RES     
    5532 H6         -80.7862   -40.7491   114.0308 H6            1 RES     
    5533 H6         -81.8319   -41.0338   112.6131 H6            1 RES     
    5534 H6         -80.9293   -43.0854   114.6882 H6            1 RES     
    5535 H6         -81.8092   -43.5396   113.1680 H6            1 RES     
    5536 H6         -83.8146   -42.3239   113.8214 H6            1 RES     
    5537 H6         -82.9784   -41.5572   115.2118 H6            1 RES     
    5538 H6         -84.3903   -43.3820   116.0553 H6            1 RES     
    5539 H6         -82.6547   -43.6546   116.3571 H6            1 RES     
    5540 H6         -83.6219   -45.7713   115.7633 H6            1 RES     
    5541 H6         -82.5229   -45.2793   114.4675 H6            1 RES     
    5542 H6         -84.4722   -44.5650   113.0527 H6            1 RES     
    5543 H6         -84.5294   -46.2938   113.5228 H6            1 RES     
    5544 H6         -86.2044   -44.0258   114.7924 H6            1 RES     
    5545 H6         -86.7611   -45.2705   113.6285 H6            1 RES     
    5546 H6         -86.2567   -47.0831   115.2864 H6            1 RES     
    5547 H6         -85.7493   -45.8307   116.4933 H6            1 RES     
    5548 H6         -87.4432   -45.8780   115.9142 H6            1 RES     
    5549 C0         -65.0908   -52.0967   121.4437 C0            1 RES     
    5550 C0         -66.2322   -51.0072   122.4089 C0            1 RES     
    5551 C0         -67.4458   -51.6632   122.5712 C0            1 RES     
    5552 S1         -68.7459   -50.7082   123.1625 S1            1 RES     
    5553 C0         -68.0562   -49.2094   123.3441 C0            1 RES     
    5554 C0         -66.5993   -49.5320   122.9047 C0            1 RES     
    5555 C0         -67.5707   -52.8247   121.6897 C0            1 RES     
    5556 C0         -66.4502   -52.4092   120.7503 C0            1 RES     
    5557 C0         -66.9364   -51.7285   119.6770 C0            1 RES     
    5558 C0         -68.3244   -51.7001   119.5644 C0            1 RES     
    5559 S1         -69.1702   -52.6431   120.8036 S1            1 RES     
    5560 H2         -65.9217   -48.6900   122.8297 H2            1 RES     
    5561 H2         -66.3350   -51.0769   119.0644 H2            1 RES     
    5562 N3         -71.5882   -47.4853   124.0553 N3            1 RES     
    5563 C0         -70.5807   -48.2993   123.7049 C0            1 RES     
    5564 C0         -69.1425   -48.0010   123.8253 C0            1 RES     
    5565 C0         -69.0039   -46.6417   124.3887 C0            1 RES     
    5566 N3         -67.8145   -46.0083   124.6401 N3            1 RES     
    5567 S1         -68.2755   -44.5454   125.2903 S1            1 RES     
    5568 N3         -69.9266   -44.6047   125.2701 N3            1 RES     
    5569 C0         -70.1595   -45.8164   124.7482 C0            1 RES     
    5570 C0         -71.4563   -46.2349   124.5777 C0            1 RES     
    5571 H4         -70.9144   -49.2283   123.2990 H4            1 RES     
    5572 C5         -55.9771   -69.0153   118.8136 C5            1 RES     
    5573 C5         -56.6490   -67.6810   119.2460 C5            1 RES     
    5574 C5         -56.0785   -66.4207   118.5164 C5            1 RES     
    5575 C5         -56.8841   -65.0368   118.6355 C5            1 RES     
    5576 C5         -56.8688   -64.1837   119.9765 C5            1 RES     
    5577 C5         -57.8738   -62.8807   120.2398 C5            1 RES     
    5578 C5         -57.7457   -61.3541   119.6179 C5            1 RES     
    5579 C5         -58.5317   -59.8705   120.1289 C5            1 RES     
    5580 C5         -60.0185   -59.1239   119.7520 C5            1 RES     
    5581 C5         -61.0096   -57.7026   120.2437 C5            1 RES     
    5582 C5         -61.1729   -55.9689   119.8664 C5            1 RES     
    5583 C5         -59.6334   -55.7255   119.3721 C5            1 RES     
    5584 C5         -58.3979   -56.1014   120.3108 C5            1 RES     
    5585 C5         -57.0081   -56.3294   119.5727 C5            1 RES     
    5586 C5         -55.7531   -56.5208   120.5079 C5            1 RES     
    5587 C5         -55.5934   -55.4186   121.5779 C5            1 RES     
    5588 C5         -55.5824   -53.9790   121.0091 C5            1 RES     
    5589 C5         -54.2603   -53.2127   121.1335 C5            1 RES     
    5590 C5         -53.0785   -53.8583   120.4184 C5            1 RES     
    5591 C5         -62.4207   -54.4657   120.1566 C5            1 RES     
    5592 C0         -63.7748   -53.5926   121.2683 C0            1 RES     
    5593 C5         -63.2697   -53.9723   122.6839 C5            1 RES     
    5594 C5         -62.7294   -55.4714   122.8744 C5            1 RES     
    5595 C5         -63.8458   -56.4879   123.1695 C5            1 RES     
    5596 C5         -65.0688   -56.5000   122.2237 C5            1 RES     
    5597 C5         -64.7577   -56.6449   120.7180 C5            1 RES     
    5598 C5         -65.9596   -56.9948   119.8504 C5            1 RES     
    5599 C5         -67.1169   -56.0128   120.0355 C5            1 RES     
    5600 C5         -68.3756   -56.5339   119.3496 C5            1 RES     
    5601 C5         -69.5743   -55.7178   119.8142 C5            1 RES     
    5602 C5         -70.8907   -56.2932   119.3445 C5            1 RES     
    5603 C5         -61.5628   -55.5258   123.9189 C5            1 RES     
    5604 C5         -60.5526   -56.7344   123.9931 C5            1 RES     
    5605 C5         -60.9290   -58.1142   124.5984 C5            1 RES     
    5606 C5         -61.5135   -57.9903   126.0114 C5            1 RES     
    5607 C5         -61.6049   -59.3354   126.7668 C5            1 RES     
    5608 C5         -62.5215   -59.2361   128.0061 C5            1 RES     
    5609 C5         -62.1383   -58.1654   129.0491 C5            1 RES     
    5610 C5         -60.8202   -58.4191   129.8042 C5            1 RES     
    5611 C5         -60.7912   -59.7117   130.6438 C5            1 RES     
    5612 C5         -61.8733   -59.7590   131.7261 C5            1 RES     
    5613 H6         -56.1110   -69.2082   117.7246 H6            1 RES     
    5614 H6         -54.8899   -69.0401   119.0403 H6            1 RES     
    5615 H6         -56.4455   -69.8789   119.3439 H6            1 RES     
    5616 H6         -57.7250   -67.7917   118.9971 H6            1 RES     
    5617 H6         -56.5393   -67.5756   120.3443 H6            1 RES     
    5618 H6         -55.0005   -66.3092   118.7721 H6            1 RES     
    5619 H6         -56.1110   -66.7020   117.4367 H6            1 RES     
    5620 H6         -57.9319   -65.2810   118.3738 H6            1 RES     
    5621 H6         -56.4648   -64.3815   117.8459 H6            1 RES     
    5622 H6         -55.8065   -63.9254   120.1982 H6            1 RES     
    5623 H6         -57.1424   -64.9439   120.7468 H6            1 RES     
    5624 H6         -57.7397   -62.7357   121.3347 H6            1 RES     
    5625 H6         -58.8976   -63.2597   120.0779 H6            1 RES     
    5626 H6         -56.6658   -61.1749   119.8478 H6            1 RES     
    5627 H6         -57.7769   -61.4435   118.5125 H6            1 RES     
    5628 H6         -57.7633   -59.1513   119.7768 H6            1 RES     
    5629 H6         -58.4010   -59.9154   121.2314 H6            1 RES     
    5630 H6         -60.0242   -59.1258   118.6425 H6            1 RES     
    5631 H6         -60.6693   -59.9648   120.0670 H6            1 RES     
    5632 H6         -60.9996   -57.7920   121.3342 H6            1 RES     
    5633 H6         -61.9920   -58.0767   119.9267 H6            1 RES     
    5634 H6         -61.5531   -56.1027   118.8288 H6            1 RES     
    5635 H6         -59.4791   -54.7374   118.8940 H6            1 RES     
    5636 H6         -59.4796   -56.4547   118.5332 H6            1 RES     
    5637 H6         -58.5703   -57.0474   120.8612 H6            1 RES     
    5638 H6         -58.3051   -55.2867   121.0455 H6            1 RES     
    5639 H6         -56.8037   -55.4953   118.8809 H6            1 RES     
    5640 H6         -57.0447   -57.2253   118.9100 H6            1 RES     
    5641 H6         -54.8223   -56.5674   119.8923 H6            1 RES     
    5642 H6         -55.8164   -57.4958   121.0446 H6            1 RES     
    5643 H6         -56.4676   -55.5263   122.2495 H6            1 RES     
    5644 H6         -54.7143   -55.5962   122.2395 H6            1 RES     
    5645 H6         -55.9202   -53.9402   119.9602 H6            1 RES     
    5646 H6         -56.3280   -53.3941   121.5872 H6            1 RES     
    5647 H6         -54.0085   -53.0855   122.2072 H6            1 RES     
    5648 H6         -54.4261   -52.2039   120.6940 H6            1 RES     
    5649 H6         -53.2952   -53.9995   119.3394 H6            1 RES     
    5650 H6         -52.1966   -53.1883   120.5196 H6            1 RES     
    5651 H6         -52.8267   -54.8341   120.8819 H6            1 RES     
    5652 H6         -62.9929   -54.5192   119.2023 H6            1 RES     
    5653 H6         -61.7498   -53.6157   119.9104 H6            1 RES     
    5654 H6         -62.4371   -53.2585   122.8336 H6            1 RES     
    5655 H6         -64.0577   -53.7563   123.4318 H6            1 RES     
    5656 H6         -62.2366   -55.8376   121.9934 H6            1 RES     
    5657 H6         -63.3972   -57.4968   123.1503 H6            1 RES     
    5658 H6         -64.2287   -56.3010   124.1906 H6            1 RES     
    5659 H6         -65.6937   -57.3602   122.5421 H6            1 RES     
    5660 H6         -65.6458   -55.5664   122.3915 H6            1 RES     
    5661 H6         -64.4279   -55.7012   120.3306 H6            1 RES     
    5662 H6         -63.9813   -57.4092   120.5542 H6            1 RES     
    5663 H6         -65.6529   -57.0065   118.7786 H6            1 RES     
    5664 H6         -66.2810   -58.0149   120.1394 H6            1 RES     
    5665 H6         -67.3507   -55.9571   121.1154 H6            1 RES     
    5666 H6         -66.8490   -54.9920   119.6784 H6            1 RES     
    5667 H6         -68.2675   -56.5003   118.2429 H6            1 RES     
    5668 H6         -68.5358   -57.5839   119.6719 H6            1 RES     
    5669 H6         -69.4744   -54.7045   119.4026 H6            1 RES     
    5670 H6         -69.5975   -55.6966   120.9298 H6            1 RES     
    5671 H6         -70.9378   -56.2661   118.2380 H6            1 RES     
    5672 H6         -71.7152   -55.6803   119.7678 H6            1 RES     
    5673 H6         -70.9951   -57.3359   119.7107 H6            1 RES     
    5674 H6         -61.9423   -55.2748   124.9254 H6            1 RES     
    5675 H6         -60.8847   -54.7016   123.6009 H6            1 RES     
    5676 H6         -60.0757   -56.8994   123.0084 H6            1 RES     
    5677 H6         -59.7224   -56.3738   124.6386 H6            1 RES     
    5678 H6         -61.6205   -58.6892   123.9479 H6            1 RES     
    5679 H6         -59.9833   -58.7058   124.6576 H6            1 RES     
    5680 H6         -62.5254   -57.5514   125.8966 H6            1 RES     
    5681 H6         -60.8779   -57.3100   126.6170 H6            1 RES     
    5682 H6         -60.5864   -59.6877   127.0509 H6            1 RES     
    5683 H6         -62.0519   -60.1088   126.1047 H6            1 RES     
    5684 H6         -62.6011   -60.2295   128.4961 H6            1 RES     
    5685 H6         -63.5371   -58.9813   127.6338 H6            1 RES     
    5686 H6         -62.9619   -58.0881   129.7879 H6            1 RES     
    5687 H6         -62.0832   -57.1739   128.5543 H6            1 RES     
    5688 H6         -59.9783   -58.4404   129.0807 H6            1 RES     
    5689 H6         -60.6501   -57.5592   130.4896 H6            1 RES     
    5690 H6         -60.8873   -60.6010   129.9878 H6            1 RES     
    5691 H6         -59.8016   -59.7697   131.1471 H6            1 RES     
    5692 H6         -61.7815   -58.8860   132.4071 H6            1 RES     
    5693 H6         -62.8882   -59.7715   131.2786 H6            1 RES     
    5694 H6         -61.7589   -60.6878   132.3237 H6            1 RES     
    5695 C0         -75.7343   -43.5022   123.4796 C0            1 RES     
    5696 C0         -76.0564   -45.3235   123.4966 C0            1 RES     
    5697 C0         -75.8729   -45.7979   124.7893 C0            1 RES     
    5698 S1         -75.8137   -47.5061   124.9641 S1            1 RES     
    5699 C0         -76.0024   -48.0480   123.4066 C0            1 RES     
    5700 C0         -76.1630   -46.6876   122.6693 C0            1 RES     
    5701 C0         -75.1888   -44.8272   125.6445 C0            1 RES     
    5702 C0         -74.6581   -43.9804   124.4991 C0            1 RES     
    5703 C0         -73.3932   -44.3504   124.1600 C0            1 RES     
    5704 C0         -72.7918   -45.2758   125.0095 C0            1 RES     
    5705 S1         -73.7755   -45.7113   126.4177 S1            1 RES     
    5706 H2         -76.2087   -46.7290   121.5877 H2            1 RES     
    5707 H2         -72.9444   -44.1270   123.2060 H2            1 RES     
    5708 N3         -75.1457   -51.8114   124.4340 N3            1 RES     
    5709 C0         -75.3021   -50.4804   124.3680 C0            1 RES     
    5710 C0         -75.8798   -49.7298   123.2389 C0            1 RES     
    5711 C0         -76.2457   -50.6998   122.1856 C0            1 RES     
    5712 N3         -76.8057   -50.3789   120.9762 N3            1 RES     
    5713 S1         -77.0231   -51.8559   120.2370 S1            1 RES     
    5714 N3         -76.4266   -52.9397   121.3323 N3            1 RES     
    5715 C0         -76.0434   -52.1425   122.3386 C0            1 RES     
    5716 C0         -75.4877   -52.7022   123.4628 C0            1 RES     
    5717 H4         -74.9478   -49.9732   125.2377 H4            1 RES     
    5718 C5         -79.0750   -25.6227   130.2159 C5            1 RES     
    5719 C5         -79.0358   -27.0829   129.6823 C5            1 RES     
    5720 C5         -78.3770   -27.2224   128.2708 C5            1 RES     
    5721 C5         -77.9937   -28.6909   127.7463 C5            1 RES     
    5722 C5         -79.1090   -29.7097   127.2517 C5            1 RES     
    5723 C5         -78.8001   -31.3161   126.9336 C5            1 RES     
    5724 C5         -78.0436   -31.9656   125.6147 C5            1 RES     
    5725 C5         -78.0140   -33.6270   125.0499 C5            1 RES     
    5726 C5         -77.0262   -34.9771   125.3837 C5            1 RES     
    5727 C5         -76.9153   -36.7322   124.9947 C5            1 RES     
    5728 C5         -76.2500   -37.8012   123.7340 C5            1 RES     
    5729 C5         -76.3047   -36.7220   122.5068 C5            1 RES     
    5730 C5         -77.6661   -35.9831   122.1199 C5            1 RES     
    5731 C5         -77.5131   -34.6193   121.3170 C5            1 RES     
    5732 C5         -78.8507   -33.9824   120.7768 C5            1 RES     
    5733 C5         -79.7299   -34.9608   119.9676 C5            1 RES     
    5734 C5         -78.9939   -35.6548   118.7959 C5            1 RES     
    5735 C5         -79.4640   -35.2807   117.3854 C5            1 RES     
    5736 C5         -79.3207   -33.8036   117.0355 C5            1 RES     
    5737 C5         -75.8497   -39.7099   123.4217 C5            1 RES     
    5738 C0         -76.2637   -41.5934   123.7569 C0            1 RES     
    5739 C5         -77.8061   -41.5258   123.8969 C5            1 RES     
    5740 C5         -78.3980   -40.2792   124.7161 C5            1 RES     
    5741 C5         -78.4254   -40.5080   126.2371 C5            1 RES     
    5742 C5         -77.1199   -40.9905   126.9102 C5            1 RES     
    5743 C5         -75.8628   -40.1358   126.6379 C5            1 RES     
    5744 C5         -74.6874   -40.4191   127.5642 C5            1 RES     
    5745 C5         -74.3002   -41.8982   127.5777 C5            1 RES     
    5746 C5         -73.2979   -42.1786   128.6926 C5            1 RES     
    5747 C5         -73.1785   -43.6833   128.8929 C5            1 RES     
    5748 C5         -72.3633   -44.0479   130.1124 C5            1 RES     
    5749 C5         -79.7844   -39.8292   124.1414 C5            1 RES     
    5750 C5         -80.3926   -38.4023   124.4257 C5            1 RES     
    5751 C5         -81.0235   -38.0092   125.7893 C5            1 RES     
    5752 C5         -82.1011   -39.0036   126.2406 C5            1 RES     
    5753 C5         -82.9665   -38.4924   127.4145 C5            1 RES     
    5754 C5         -83.7695   -39.6348   128.0750 C5            1 RES     
    5755 C5         -84.7080   -40.4306   127.1439 C5            1 RES     
    5756 C5         -85.9111   -39.6455   126.5889 C5            1 RES     
    5757 C5         -86.8893   -39.1160   127.6563 C5            1 RES     
    5758 C5         -87.5104   -40.2215   128.5146 C5            1 RES     
    5759 H6         -78.0515   -25.1941   130.3148 H6            1 RES     
    5760 H6         -79.6743   -24.9468   129.5694 H6            1 RES     
    5761 H6         -79.5269   -25.5911   131.2364 H6            1 RES     
    5762 H6         -78.4403   -27.6575   130.4221 H6            1 RES     
    5763 H6         -80.0724   -27.4760   129.6666 H6            1 RES     
    5764 H6         -78.9794   -26.6495   127.5300 H6            1 RES     
    5765 H6         -77.4112   -26.6722   128.3732 H6            1 RES     
    5766 H6         -77.4164   -29.1572   128.5680 H6            1 RES     
    5767 H6         -77.3162   -28.5295   126.8839 H6            1 RES     
    5768 H6         -79.6525   -29.2277   126.4051 H6            1 RES     
    5769 H6         -79.8361   -29.6981   128.0987 H6            1 RES     
    5770 H6         -79.8363   -31.7163   126.8718 H6            1 RES     
    5771 H6         -78.3435   -31.7173   127.8547 H6            1 RES     
    5772 H6         -78.6127   -31.4247   124.8179 H6            1 RES     
    5773 H6         -77.0260   -31.5263   125.5672 H6            1 RES     
    5774 H6         -77.8547   -33.4273   123.9698 H6            1 RES     
    5775 H6         -79.0844   -33.9123   125.1355 H6            1 RES     
    5776 H6         -76.0008   -34.5741   125.2530 H6            1 RES     
    5777 H6         -77.2113   -35.0059   126.4768 H6            1 RES     
    5778 H6         -77.9385   -37.0676   125.1897 H6            1 RES     
    5779 H6         -76.3296   -37.0515   125.8668 H6            1 RES     
    5780 H6         -75.1775   -37.5972   123.9511 H6            1 RES     
    5781 H6         -75.7708   -37.0659   121.5983 H6            1 RES     
    5782 H6         -75.6943   -35.8494   122.8607 H6            1 RES     
    5783 H6         -78.2541   -35.7046   123.0168 H6            1 RES     
    5784 H6         -78.2553   -36.7030   121.5309 H6            1 RES     
    5785 H6         -76.8228   -34.7536   120.4676 H6            1 RES     
    5786 H6         -77.0225   -33.8360   121.9407 H6            1 RES     
    5787 H6         -78.6204   -33.0917   120.1435 H6            1 RES     
    5788 H6         -79.4691   -33.6059   121.6244 H6            1 RES     
    5789 H6         -80.0550   -35.7358   120.6891 H6            1 RES     
    5790 H6         -80.6794   -34.4896   119.6232 H6            1 RES     
    5791 H6         -77.9003   -35.5267   118.8535 H6            1 RES     
    5792 H6         -79.1748   -36.7453   118.8972 H6            1 RES     
    5793 H6         -80.5252   -35.5815   117.2595 H6            1 RES     
    5794 H6         -78.8488   -35.8706   116.6700 H6            1 RES     
    5795 H6         -78.2692   -33.4680   117.1490 H6            1 RES     
    5796 H6         -79.6274   -33.6611   115.9761 H6            1 RES     
    5797 H6         -79.9836   -33.1845   117.6740 H6            1 RES     
    5798 H6         -74.7738   -39.7183   123.7104 H6            1 RES     
    5799 H6         -75.7339   -39.6982   122.3173 H6            1 RES     
    5800 H6         -78.1335   -41.4624   122.8414 H6            1 RES     
    5801 H6         -78.1839   -42.4744   124.3266 H6            1 RES     
    5802 H6         -77.8150   -39.3888   124.5726 H6            1 RES     
    5803 H6         -78.7179   -39.5569   126.7161 H6            1 RES     
    5804 H6         -79.2036   -41.2611   126.4640 H6            1 RES     
    5805 H6         -77.3201   -40.9906   128.0019 H6            1 RES     
    5806 H6         -76.9302   -42.0360   126.5886 H6            1 RES     
    5807 H6         -75.4815   -40.3649   125.6624 H6            1 RES     
    5808 H6         -76.1019   -39.0623   126.7042 H6            1 RES     
    5809 H6         -73.8092   -39.8102   127.2463 H6            1 RES     
    5810 H6         -74.9923   -40.1000   128.5803 H6            1 RES     
    5811 H6         -75.2051   -42.4880   127.8165 H6            1 RES     
    5812 H6         -73.9133   -42.2294   126.5867 H6            1 RES     
    5813 H6         -72.3101   -41.7213   128.4627 H6            1 RES     
    5814 H6         -73.6952   -41.7426   129.6329 H6            1 RES     
    5815 H6         -72.6828   -44.1048   128.0082 H6            1 RES     
    5816 H6         -74.1965   -44.1205   129.0281 H6            1 RES     
    5817 H6         -71.3216   -43.6927   129.9864 H6            1 RES     
    5818 H6         -72.3693   -45.1534   130.2237 H6            1 RES     
    5819 H6         -72.8199   -43.5945   131.0169 H6            1 RES     
    5820 H6         -80.5408   -40.6152   124.3156 H6            1 RES     
    5821 H6         -79.6088   -39.7702   123.0433 H6            1 RES     
    5822 H6         -79.6782   -37.6121   124.1267 H6            1 RES     
    5823 H6         -81.2294   -38.2987   123.7011 H6            1 RES     
    5824 H6         -80.2635   -37.8808   126.5879 H6            1 RES     
    5825 H6         -81.5027   -37.0107   125.6436 H6            1 RES     
    5826 H6         -81.5699   -39.9306   126.5378 H6            1 RES     
    5827 H6         -82.7841   -39.2203   125.3921 H6            1 RES     
    5828 H6         -83.6434   -37.6776   127.0679 H6            1 RES     
    5829 H6         -82.3124   -38.0673   128.2067 H6            1 RES     
    5830 H6         -84.3418   -39.2408   128.9412 H6            1 RES     
    5831 H6         -83.0269   -40.3539   128.4831 H6            1 RES     
    5832 H6         -85.0854   -41.3125   127.7005 H6            1 RES     
    5833 H6         -84.1229   -40.8385   126.2941 H6            1 RES     
    5834 H6         -85.5459   -38.7921   125.9798 H6            1 RES     
    5835 H6         -86.4755   -40.3231   125.9102 H6            1 RES     
    5836 H6         -86.3828   -38.3801   128.3138 H6            1 RES     
    5837 H6         -87.7141   -38.5870   127.1311 H6            1 RES     
    5838 H6         -88.0409   -40.9592   127.8754 H6            1 RES     
    5839 H6         -86.7387   -40.7437   129.1164 H6            1 RES     
    5840 H6         -88.2413   -39.7750   129.2213 H6            1 RES     
    5841 C0         -72.5457   -56.9513   123.9773 C0            1 RES     
    5842 C0         -72.7191   -56.0271   125.5701 C0            1 RES     
    5843 C0         -74.0480   -56.0745   125.9721 C0            1 RES     
    5844 S1         -74.4856   -55.0189   127.2551 S1            1 RES     
    5845 C0         -73.0624   -54.2360   127.5970 C0            1 RES     
    5846 C0         -72.1218   -54.9356   126.5744 C0            1 RES     
    5847 C0         -74.9351   -56.5328   124.9023 C0            1 RES     
    5848 C0         -73.9404   -56.2863   123.7797 C0            1 RES     
    5849 C0         -74.1323   -55.0640   123.2131 C0            1 RES     
    5850 C0         -75.2682   -54.3789   123.6376 C0            1 RES     
    5851 S1         -76.2830   -55.2910   124.7684 S1            1 RES     
    5852 H2         -71.1137   -54.5453   126.5027 H2            1 RES     
    5853 H2         -73.3782   -54.5495   122.6403 H2            1 RES     
    5854 N3         -74.8774   -51.6485   130.0390 N3            1 RES     
    5855 C0         -74.5619   -52.5721   129.1183 C0            1 RES     
    5856 C0         -73.2026   -53.0284   128.7775 C0            1 RES     
    5857 C0         -72.2456   -52.2806   129.6197 C0            1 RES     
    5858 N3         -70.8828   -52.4240   129.5847 N3            1 RES     
    5859 S1         -70.3442   -51.3692   130.7563 S1            1 RES     
    5860 N3         -71.7288   -50.6773   131.3343 N3            1 RES     
    5861 C0         -72.6743   -51.2868   130.6067 C0            1 RES     
    5862 C0         -73.9928   -50.9644   130.8158 C0            1 RES     
    5863 H4         -75.4145   -52.9684   128.6131 H4            1 RES     
    5864 C5         -74.9019   -72.9931   113.3319 C5            1 RES     
    5865 C5         -74.6417   -71.8487   114.3523 C5            1 RES     
    5866 C5         -73.5942   -70.7942   113.8657 C5            1 RES     
    5867 C5         -73.4660   -69.4127   114.6742 C5            1 RES     
    5868 C5         -72.7656   -69.3506   116.0996 C5            1 RES     
    5869 C5         -72.8219   -68.0083   117.0855 C5            1 RES     
    5870 C5         -71.9708   -66.5987   116.9359 C5            1 RES     
    5871 C5         -71.7085   -65.3224   118.1116 C5            1 RES     
    5872 C5         -72.5694   -63.9163   118.5496 C5            1 RES     
    5873 C5         -72.5122   -62.5895   119.7663 C5            1 RES     
    5874 C5         -71.7451   -60.9985   120.0009 C5            1 RES     
    5875 C5         -70.4321   -61.2690   119.0647 C5            1 RES     
    5876 C5         -69.4809   -62.5249   119.3234 C5            1 RES     
    5877 C5         -68.5905   -62.9884   118.0902 C5            1 RES     
    5878 C5         -67.5216   -64.1074   118.3925 C5            1 RES     
    5879 C5         -66.6087   -63.7945   119.5982 C5            1 RES     
    5880 C5         -65.8929   -62.4246   119.5134 C5            1 RES     
    5881 C5         -64.3685   -62.4665   119.3560 C5            1 RES     
    5882 C5         -63.8758   -63.1739   118.0983 C5            1 RES     
    5883 C5         -71.8845   -59.4048   121.1593 C5            1 RES     
    5884 C0         -72.3281   -58.6204   122.8970 C0            1 RES     
    5885 C5         -71.8991   -59.7686   123.8460 C5            1 RES     
    5886 C5         -72.2582   -61.2602   123.3754 C5            1 RES     
    5887 C5         -73.6861   -61.6905   123.7531 C5            1 RES     
    5888 C5         -74.8433   -60.7394   123.3700 C5            1 RES     
    5889 C5         -74.9110   -60.3206   121.8852 C5            1 RES     
    5890 C5         -76.2258   -59.6768   121.4646 C5            1 RES     
    5891 C5         -76.5970   -58.4826   122.3445 C5            1 RES     
    5892 C5         -78.0238   -58.0280   122.0551 C5            1 RES     
    5893 C5         -78.4759   -57.0690   123.1481 C5            1 RES     
    5894 C5         -79.9453   -56.7274   123.0549 C5            1 RES     
    5895 C5         -71.1680   -62.2821   123.8467 C5            1 RES     
    5896 C5         -71.0009   -63.7032   123.1839 C5            1 RES     
    5897 C5         -71.9761   -64.8813   123.4540 C5            1 RES     
    5898 C5         -72.1582   -65.1546   124.9526 C5            1 RES     
    5899 C5         -72.8573   -66.4983   125.2593 C5            1 RES     
    5900 C5         -73.3522   -66.5669   126.7209 C5            1 RES     
    5901 C5         -72.2784   -66.3653   127.8107 C5            1 RES     
    5902 C5         -71.2214   -67.4807   127.9126 C5            1 RES     
    5903 C5         -71.7795   -68.8741   128.2641 C5            1 RES     
    5904 C5         -72.5160   -68.9141   129.6060 C5            1 RES     
    5905 H6         -75.2929   -72.6004   112.3655 H6            1 RES     
    5906 H6         -73.9913   -73.5933   113.1208 H6            1 RES     
    5907 H6         -75.6781   -73.6950   113.7209 H6            1 RES     
    5908 H6         -75.6218   -71.3491   114.5002 H6            1 RES     
    5909 H6         -74.3175   -72.3032   115.3103 H6            1 RES     
    5910 H6         -72.6110   -71.2970   113.7233 H6            1 RES     
    5911 H6         -73.9498   -70.5191   112.8440 H6            1 RES     
    5912 H6         -74.4991   -69.0240   114.7612 H6            1 RES     
    5913 H6         -72.8869   -68.7363   114.0139 H6            1 RES     
    5914 H6         -71.7192   -69.7171   115.9759 H6            1 RES     
    5915 H6         -73.2869   -70.1646   116.6579 H6            1 RES     
    5916 H6         -72.4564   -68.4412   118.0430 H6            1 RES     
    5917 H6         -73.8941   -67.7795   117.2123 H6            1 RES     
    5918 H6         -70.9526   -67.0381   116.7898 H6            1 RES     
    5919 H6         -72.2231   -66.1633   115.9472 H6            1 RES     
    5920 H6         -70.7388   -64.9447   117.7260 H6            1 RES     
    5921 H6         -71.4498   -65.9051   119.0216 H6            1 RES     
    5922 H6         -72.7530   -63.4222   117.5733 H6            1 RES     
    5923 H6         -73.5165   -64.4243   118.8233 H6            1 RES     
    5924 H6         -72.3786   -63.1482   120.6976 H6            1 RES     
    5925 H6         -73.5727   -62.3062   119.7424 H6            1 RES     
    5926 H6         -72.2962   -60.4736   119.1886 H6            1 RES     
    5927 H6         -69.8350   -60.3546   118.8748 H6            1 RES     
    5928 H6         -70.8452   -61.5324   118.0552 H6            1 RES     
    5929 H6         -70.0577   -63.4307   119.5962 H6            1 RES     
    5930 H6         -68.8356   -62.2575   120.1745 H6            1 RES     
    5931 H6         -68.0722   -62.1211   117.6483 H6            1 RES     
    5932 H6         -69.2233   -63.3758   117.2580 H6            1 RES     
    5933 H6         -66.8859   -64.2812   117.4907 H6            1 RES     
    5934 H6         -68.0276   -65.0779   118.6041 H6            1 RES     
    5935 H6         -67.2746   -63.7908   120.4833 H6            1 RES     
    5936 H6         -65.8830   -64.6152   119.8030 H6            1 RES     
    5937 H6         -66.3155   -61.7790   118.7258 H6            1 RES     
    5938 H6         -66.0850   -61.8964   120.4707 H6            1 RES     
    5939 H6         -63.9201   -62.9558   120.2459 H6            1 RES     
    5940 H6         -64.0151   -61.4118   119.3250 H6            1 RES     
    5941 H6         -64.3040   -62.7086   117.1866 H6            1 RES     
    5942 H6         -62.7679   -63.0862   118.0558 H6            1 RES     
    5943 H6         -64.1367   -64.2516   118.1282 H6            1 RES     
    5944 H6         -72.5345   -58.7697   120.5151 H6            1 RES     
    5945 H6         -70.9048   -58.9292   120.9415 H6            1 RES     
    5946 H6         -70.7994   -59.6465   123.8773 H6            1 RES     
    5947 H6         -72.3030   -59.5847   124.8610 H6            1 RES     
    5948 H6         -72.1999   -61.3718   122.3089 H6            1 RES     
    5949 H6         -73.8820   -62.6664   123.2747 H6            1 RES     
    5950 H6         -73.7314   -61.8296   124.8497 H6            1 RES     
    5951 H6         -75.7794   -61.2753   123.6314 H6            1 RES     
    5952 H6         -74.7702   -59.8316   124.0050 H6            1 RES     
    5953 H6         -74.1807   -59.5585   121.6970 H6            1 RES     
    5954 H6         -74.7268   -61.1864   121.2292 H6            1 RES     
    5955 H6         -76.1536   -59.3450   120.4027 H6            1 RES     
    5956 H6         -77.0073   -60.4583   121.5406 H6            1 RES     
    5957 H6         -76.5839   -58.8159   123.3993 H6            1 RES     
    5958 H6         -75.8696   -57.6467   122.2285 H6            1 RES     
    5959 H6         -78.0944   -57.5577   121.0494 H6            1 RES     
    5960 H6         -78.6850   -58.9188   122.0919 H6            1 RES     
    5961 H6         -77.8987   -56.1404   123.0443 H6            1 RES     
    5962 H6         -78.3042   -57.5381   124.1462 H6            1 RES     
    5963 H6         -80.1462   -56.1936   122.1051 H6            1 RES     
    5964 H6         -80.2111   -56.0737   123.9132 H6            1 RES     
    5965 H6         -80.5499   -57.6566   123.1118 H6            1 RES     
    5966 H6         -71.1773   -62.3662   124.9481 H6            1 RES     
    5967 H6         -70.2084   -61.7979   123.5555 H6            1 RES     
    5968 H6         -70.8609   -63.6047   122.0908 H6            1 RES     
    5969 H6         -70.0195   -64.0757   123.5499 H6            1 RES     
    5970 H6         -72.9640   -64.7349   122.9695 H6            1 RES     
    5971 H6         -71.5222   -65.7863   122.9822 H6            1 RES     
    5972 H6         -72.7598   -64.3146   125.3554 H6            1 RES     
    5973 H6         -71.1649   -65.1744   125.4491 H6            1 RES     
    5974 H6         -72.1752   -67.3490   125.0285 H6            1 RES     
    5975 H6         -73.7573   -66.6094   124.6158 H6            1 RES     
    5976 H6         -73.8892   -67.5238   126.8921 H6            1 RES     
    5977 H6         -74.1001   -65.7543   126.8444 H6            1 RES     
    5978 H6         -72.7897   -66.2696   128.7902 H6            1 RES     
    5979 H6         -71.7632   -65.3970   127.6438 H6            1 RES     
    5980 H6         -70.6616   -67.5476   126.9561 H6            1 RES     
    5981 H6         -70.4959   -67.1903   128.7047 H6            1 RES     
    5982 H6         -72.4562   -69.2332   127.4619 H6            1 RES     
    5983 H6         -70.9227   -69.5801   128.3233 H6            1 RES     
    5984 H6         -71.8479   -68.5769   130.4271 H6            1 RES     
    5985 H6         -73.4236   -68.2767   129.5848 H6            1 RES     
    5986 H6         -72.8416   -69.9541   129.8188 H6            1 RES     
    5987 C0         -76.1481   -46.4572   132.2350 C0            1 RES     
    5988 C0         -77.4180   -47.7419   131.8376 C0            1 RES     
    5989 C0         -77.3238   -48.7673   132.7700 C0            1 RES     
    5990 S1         -78.1942   -50.2024   132.4031 S1            1 RES     
    5991 C0         -78.8985   -49.8491   130.9421 C0            1 RES     
    5992 C0         -78.3939   -48.3904   130.7494 C0            1 RES     
    5993 C0         -76.0899   -48.6930   133.5533 C0            1 RES     
    5994 C0         -75.3707   -47.7583   132.5942 C0            1 RES     
    5995 C0         -74.5971   -48.4546   131.7175 C0            1 RES     
    5996 C0         -74.4827   -49.8190   131.9725 C0            1 RES     
    5997 S1         -75.3017   -50.3499   133.4517 S1            1 RES     
    5998 H2         -78.6276   -47.9216   129.8011 H2            1 RES     
    5999 H2         -74.2597   -48.0547   130.7753 H2            1 RES     
    6000 N3         -80.1201   -53.6173   130.4299 N3            1 RES     
    6001 C0         -79.5206   -52.4815   130.8187 C0            1 RES     
    6002 C0         -79.7575   -51.1395   130.2574 C0            1 RES     
    6003 C0         -80.7629   -51.2657   129.1816 C0            1 RES     
    6004 N3         -81.2363   -50.2308   128.4175 N3            1 RES     
    6005 S1         -82.3512   -50.9573   127.4152 S1            1 RES     
    6006 N3         -82.2890   -52.5522   127.8423 N3            1 RES     
    6007 C0         -81.3728   -52.5474   128.8198 C0            1 RES     
    6008 C0         -81.0489   -53.7288   129.4407 C0            1 RES     
    6009 H4         -78.8107   -52.6292   131.6018 H4            1 RES     
    6010 C5         -67.8858   -34.0412   144.6363 C5            1 RES     
    6011 C5         -68.7487   -34.9594   143.7249 C5            1 RES     
    6012 C5         -68.5144   -34.7317   142.1954 C5            1 RES     
    6013 C5         -69.0995   -35.8124   141.1618 C5            1 RES     
    6014 C5         -70.6543   -35.8940   140.8424 C5            1 RES     
    6015 C5         -71.3434   -37.1410   139.9780 C5            1 RES     
    6016 C5         -71.2972   -37.3951   138.3449 C5            1 RES     
    6017 C5         -72.2845   -38.4519   137.3507 C5            1 RES     
    6018 C5         -72.1726   -40.0888   136.8837 C5            1 RES     
    6019 C5         -73.1172   -41.3328   135.9869 C5            1 RES     
    6020 C5         -73.3685   -41.8993   134.3164 C5            1 RES     
    6021 C5         -73.0118   -40.4887   133.5705 C5            1 RES     
    6022 C5         -73.7762   -39.1397   133.9509 C5            1 RES     
    6023 C5         -73.0241   -37.7874   133.5849 C5            1 RES     
    6024 C5         -73.8501   -36.4603   133.7916 C5            1 RES     
    6025 C5         -75.2403   -36.4748   133.1191 C5            1 RES     
    6026 C5         -75.2117   -36.8200   131.6104 C5            1 RES     
    6027 C5         -75.6145   -35.6939   130.6511 C5            1 RES     
    6028 C5         -74.7349   -34.4504   130.7211 C5            1 RES     
    6029 C5         -74.1496   -43.4249   133.3348 C5            1 RES     
    6030 C0         -75.4781   -44.8590   133.2337 C0            1 RES     
    6031 C5         -76.6779   -44.1873   133.9496 C5            1 RES     
    6032 C5         -76.3389   -43.3184   135.2556 C5            1 RES     
    6033 C5         -76.2442   -44.1606   136.5394 C5            1 RES     
    6034 C5         -75.3374   -45.4125   136.5069 C5            1 RES     
    6035 C5         -73.8806   -45.1805   136.0498 C5            1 RES     
    6036 C5         -72.9291   -46.3321   136.3469 C5            1 RES     
    6037 C5         -73.4306   -47.6620   135.7829 C5            1 RES     
    6038 C5         -72.5886   -48.8187   136.3113 C5            1 RES     
    6039 C5         -73.2930   -50.1331   136.0039 C5            1 RES     
    6040 C5         -72.6337   -51.3193   136.6695 C5            1 RES     
    6041 C5         -77.3140   -42.1000   135.3955 C5            1 RES     
    6042 C5         -76.9741   -40.8457   136.2887 C5            1 RES     
    6043 C5         -77.0529   -40.8668   137.8396 C5            1 RES     
    6044 C5         -78.4117   -41.3664   138.3470 C5            1 RES     
    6045 C5         -78.6470   -41.1075   139.8523 C5            1 RES     
    6046 C5         -79.8301   -41.9368   140.3988 C5            1 RES     
    6047 C5         -81.1870   -41.7287   139.6942 C5            1 RES     
    6048 C5         -81.8234   -40.3387   139.8813 C5            1 RES     
    6049 C5         -82.1577   -39.9684   141.3399 C5            1 RES     
    6050 C5         -83.1401   -40.9372   142.0040 C5            1 RES     
    6051 H6         -66.7965   -34.2032   144.4686 H6            1 RES     
    6052 H6         -68.1043   -32.9624   144.4865 H6            1 RES     
    6053 H6         -68.0737   -34.2705   145.7127 H6            1 RES     
    6054 H6         -68.4622   -35.9990   143.9879 H6            1 RES     
    6055 H6         -69.8158   -34.8010   143.9811 H6            1 RES     
    6056 H6         -68.8076   -33.6899   141.9336 H6            1 RES     
    6057 H6         -67.4042   -34.7750   142.0878 H6            1 RES     
    6058 H6         -68.7546   -36.7960   141.5354 H6            1 RES     
    6059 H6         -68.5950   -35.6025   140.1973 H6            1 RES     
    6060 H6         -70.9669   -34.9020   140.4389 H6            1 RES     
    6061 H6         -71.1059   -35.9402   141.8623 H6            1 RES     
    6062 H6         -72.4215   -36.9677   140.1914 H6            1 RES     
    6063 H6         -71.0452   -38.0647   140.5031 H6            1 RES     
    6064 H6         -71.5900   -36.3680   138.0121 H6            1 RES     
    6065 H6         -70.2302   -37.4811   138.0536 H6            1 RES     
    6066 H6         -72.2169   -37.8867   136.3981 H6            1 RES     
    6067 H6         -73.3031   -38.2396   137.7404 H6            1 RES     
    6068 H6         -71.1326   -40.1695   136.5055 H6            1 RES     
    6069 H6         -72.1644   -40.5153   137.9074 H6            1 RES     
    6070 H6         -74.1075   -41.2290   136.4407 H6            1 RES     
    6071 H6         -72.6759   -42.2279   136.4447 H6            1 RES     
    6072 H6         -72.3447   -42.3106   134.1691 H6            1 RES     
    6073 H6         -72.9120   -40.5888   132.4711 H6            1 RES     
    6074 H6         -71.9728   -40.2355   133.9107 H6            1 RES     
    6075 H6         -73.9582   -39.0614   135.0411 H6            1 RES     
    6076 H6         -74.7509   -39.1787   133.4403 H6            1 RES     
    6077 H6         -72.6709   -37.8195   132.5407 H6            1 RES     
    6078 H6         -72.0891   -37.6709   134.1813 H6            1 RES     
    6079 H6         -73.2699   -35.5863   133.4082 H6            1 RES     
    6080 H6         -74.0105   -36.2705   134.8783 H6            1 RES     
    6081 H6         -75.8197   -37.2559   133.6492 H6            1 RES     
    6082 H6         -75.8098   -35.5352   133.3058 H6            1 RES     
    6083 H6         -74.2383   -37.2287   131.2924 H6            1 RES     
    6084 H6         -75.9477   -37.6350   131.4482 H6            1 RES     
    6085 H6         -76.6681   -35.4037   130.8463 H6            1 RES     
    6086 H6         -75.5538   -36.1074   129.6198 H6            1 RES     
    6087 H6         -73.6719   -34.7038   130.5287 H6            1 RES     
    6088 H6         -75.0762   -33.7331   129.9429 H6            1 RES     
    6089 H6         -74.8307   -33.9589   131.7108 H6            1 RES     
    6090 H6         -73.2293   -44.0350   133.1874 H6            1 RES     
    6091 H6         -74.2257   -42.9761   132.3219 H6            1 RES     
    6092 H6         -77.0793   -43.5242   133.1595 H6            1 RES     
    6093 H6         -77.4433   -44.9507   134.1914 H6            1 RES     
    6094 H6         -75.3922   -42.8182   135.1728 H6            1 RES     
    6095 H6         -75.8790   -43.5031   137.3481 H6            1 RES     
    6096 H6         -77.2608   -44.5047   136.8083 H6            1 RES     
    6097 H6         -75.3259   -45.8093   137.5434 H6            1 RES     
    6098 H6         -75.8136   -46.1682   135.8475 H6            1 RES     
    6099 H6         -73.8527   -45.0939   134.9816 H6            1 RES     
    6100 H6         -73.4702   -44.2678   136.5106 H6            1 RES     
    6101 H6         -71.9254   -46.1042   135.9186 H6            1 RES     
    6102 H6         -72.8383   -46.4004   137.4489 H6            1 RES     
    6103 H6         -74.4583   -47.8281   136.1571 H6            1 RES     
    6104 H6         -73.4571   -47.6505   134.6691 H6            1 RES     
    6105 H6         -71.5652   -48.7963   135.8756 H6            1 RES     
    6106 H6         -72.5206   -48.7212   137.4150 H6            1 RES     
    6107 H6         -73.2636   -50.2873   134.9170 H6            1 RES     
    6108 H6         -74.3451   -50.0843   136.3734 H6            1 RES     
    6109 H6         -71.6062   -51.4466   136.2754 H6            1 RES     
    6110 H6         -73.2336   -52.2277   136.4468 H6            1 RES     
    6111 H6         -72.6102   -51.1663   137.7687 H6            1 RES     
    6112 H6         -78.3395   -42.4559   135.6002 H6            1 RES     
    6113 H6         -77.3139   -41.6435   134.3797 H6            1 RES     
    6114 H6         -76.0006   -40.4125   135.9908 H6            1 RES     
    6115 H6         -77.7163   -40.0733   135.9911 H6            1 RES     
    6116 H6         -76.2328   -41.4573   138.2988 H6            1 RES     
    6117 H6         -76.9141   -39.8122   138.1809 H6            1 RES     
    6118 H6         -78.4440   -42.4555   138.1409 H6            1 RES     
    6119 H6         -79.2258   -40.8565   137.7895 H6            1 RES     
    6120 H6         -78.8037   -40.0195   140.0362 H6            1 RES     
    6121 H6         -77.7501   -41.4172   140.4318 H6            1 RES     
    6122 H6         -79.9402   -41.7619   141.4899 H6            1 RES     
    6123 H6         -79.5567   -43.0066   140.2727 H6            1 RES     
    6124 H6         -81.8948   -42.4967   140.0673 H6            1 RES     
    6125 H6         -81.0715   -41.9273   138.6088 H6            1 RES     
    6126 H6         -81.1498   -39.5642   139.4581 H6            1 RES     
    6127 H6         -82.7688   -40.3159   139.2947 H6            1 RES     
    6128 H6         -81.2306   -39.9108   141.9463 H6            1 RES     
    6129 H6         -82.6223   -38.9584   141.3379 H6            1 RES     
    6130 H6         -84.0848   -40.9937   141.4221 H6            1 RES     
    6131 H6         -82.7027   -41.9525   142.0953 H6            1 RES     
    6132 H6         -83.3761   -40.5805   143.0287 H6            1 RES     
    6133 C0         -80.9188   -58.5684   127.5602 C0            1 RES     
    6134 C0         -80.2928   -58.4794   129.2984 C0            1 RES     
    6135 C0         -81.3398   -58.1081   130.1323 C0            1 RES     
    6136 S1         -80.9064   -57.6623   131.7340 S1            1 RES     
    6137 C0         -79.2553   -57.8328   131.7355 C0            1 RES     
    6138 C0         -79.0388   -58.3389   130.2806 C0            1 RES     
    6139 C0         -82.4900   -57.5980   129.3850 C0            1 RES     
    6140 C0         -81.7210   -57.3463   128.0982 C0            1 RES     
    6141 C0         -81.2911   -56.0571   128.0273 C0            1 RES     
    6142 C0         -81.7709   -55.2101   129.0234 C0            1 RES     
    6143 S1         -82.9240   -55.9754   130.1303 S1            1 RES     
    6144 H2         -78.0107   -58.4481   129.9571 H2            1 RES     
    6145 H2         -80.4819   -55.7346   127.3928 H2            1 RES     
    6146 N3         -78.9117   -56.0999   135.3178 N3            1 RES     
    6147 C0         -79.3137   -56.5498   134.1193 C0            1 RES     
    6148 C0         -78.5111   -57.3543   133.1808 C0            1 RES     
    6149 C0         -77.1799   -57.5685   133.7862 C0            1 RES     
    6150 N3         -76.1520   -58.2666   133.2074 N3            1 RES     
    6151 S1         -74.9396   -58.2032   134.3481 S1            1 RES     
    6152 N3         -75.5941   -57.3093   135.5739 N3            1 RES     
    6153 C0         -76.8209   -57.0434   135.1057 C0            1 RES     
    6154 C0         -77.6856   -56.3027   135.8737 C0            1 RES     
    6155 H4         -80.3107   -56.2576   133.8748 H4            1 RES     
    6156 C5         -93.4422   -65.2986   114.3662 C5            1 RES     
    6157 C5         -92.4318   -64.9752   115.5032 C5            1 RES     
    6158 C5         -91.0698   -64.3997   114.9935 C5            1 RES     
    6159 C5         -90.0697   -63.7390   116.0620 C5            1 RES     
    6160 C5         -89.2346   -64.6334   117.0763 C5            1 RES     
    6161 C5         -88.3784   -64.0006   118.3583 C5            1 RES     
    6162 C5         -86.9260   -63.2114   118.3223 C5            1 RES     
    6163 C5         -85.8158   -62.8551   119.6339 C5            1 RES     
    6164 C5         -85.6693   -61.5738   120.7505 C5            1 RES     
    6165 C5         -84.6920   -61.1057   122.1892 C5            1 RES     
    6166 C5         -83.1460   -60.3088   122.5760 C5            1 RES     
    6167 C5         -82.3737   -60.6834   121.1843 C5            1 RES     
    6168 C5         -82.2514   -62.1973   120.6921 C5            1 RES     
    6169 C5         -81.9789   -62.4037   119.1392 C5            1 RES     
    6170 C5         -81.6777   -63.8823   118.6817 C5            1 RES     
    6171 C5         -80.5653   -64.5775   119.4967 C5            1 RES     
    6172 C5         -79.2350   -63.7883   119.5564 C5            1 RES     
    6173 C5         -78.0384   -64.4243   118.8394 C5            1 RES     
    6174 C5         -78.2298   -64.6342   117.3413 C5            1 RES     
    6175 C5         -82.1907   -59.5201   124.1142 C5            1 RES     
    6176 C0         -81.8395   -59.4851   126.0396 C0            1 RES     
    6177 C5         -81.9733   -60.9913   126.3813 C5            1 RES     
    6178 C5         -83.1689   -61.7860   125.6640 C5            1 RES     
    6179 C5         -84.5131   -61.6586   126.4014 C5            1 RES     
    6180 C5         -84.9924   -60.2360   126.7714 C5            1 RES     
    6181 C5         -85.0537   -59.2197   125.6103 C5            1 RES     
    6182 C5         -85.8381   -57.9504   125.9160 C5            1 RES     
    6183 C5         -85.3382   -57.2468   127.1782 C5            1 RES     
    6184 C5         -86.2980   -56.1337   127.5858 C5            1 RES     
    6185 C5         -85.9604   -55.6724   128.9971 C5            1 RES     
    6186 C5         -86.9861   -54.7158   129.5605 C5            1 RES     
    6187 C5         -82.7694   -63.2734   125.3761 C5            1 RES     
    6188 C5         -83.5269   -64.1601   124.3146 C5            1 RES     
    6189 C5         -84.9331   -64.7676   124.5706 C5            1 RES     
    6190 C5         -84.9930   -65.5663   125.8791 C5            1 RES     
    6191 C5         -86.2596   -66.4410   126.0164 C5            1 RES     
    6192 C5         -86.4673   -66.9256   127.4683 C5            1 RES     
    6193 C5         -85.3038   -67.7270   128.0889 C5            1 RES     
    6194 C5         -85.0425   -69.1085   127.4604 C5            1 RES     
    6195 C5         -86.2143   -70.1042   127.5703 C5            1 RES     
    6196 C5         -86.6227   -70.4065   129.0148 C5            1 RES     
    6197 H6         -93.6988   -64.3904   113.7744 H6            1 RES     
    6198 H6         -93.0651   -66.0747   113.6666 H6            1 RES     
    6199 H6         -94.4029   -65.6758   114.7921 H6            1 RES     
    6200 H6         -92.9316   -64.2187   116.1435 H6            1 RES     
    6201 H6         -92.2653   -65.8983   116.0944 H6            1 RES     
    6202 H6         -90.5683   -65.1626   114.3560 H6            1 RES     
    6203 H6         -91.3715   -63.5742   114.3054 H6            1 RES     
    6204 H6         -90.6840   -63.0184   116.6359 H6            1 RES     
    6205 H6         -89.3277   -63.1741   115.4627 H6            1 RES     
    6206 H6         -88.6029   -65.3262   116.4717 H6            1 RES     
    6207 H6         -90.0220   -65.2858   117.5241 H6            1 RES     
    6208 H6         -88.1663   -64.9250   118.9400 H6            1 RES     
    6209 H6         -89.1070   -63.4052   118.9351 H6            1 RES     
    6210 H6         -86.3614   -63.9387   117.6870 H6            1 RES     
    6211 H6         -87.0493   -62.3212   117.6718 H6            1 RES     
    6212 H6         -84.8763   -62.8177   119.0443 H6            1 RES     
    6213 H6         -85.7815   -63.8280   120.1696 H6            1 RES     
    6214 H6         -85.7019   -60.6737   120.1026 H6            1 RES     
    6215 H6         -86.6805   -61.6730   121.1949 H6            1 RES     
    6216 H6         -84.7432   -62.0141   122.7971 H6            1 RES     
    6217 H6         -85.4050   -60.4059   122.6447 H6            1 RES     
    6218 H6         -83.4354   -59.2953   122.2180 H6            1 RES     
    6219 H6         -81.4096   -60.1501   121.0622 H6            1 RES     
    6220 H6         -83.0190   -60.2576   120.3709 H6            1 RES     
    6221 H6         -83.1809   -62.7697   120.8820 H6            1 RES     
    6222 H6         -81.4397   -62.6522   121.2807 H6            1 RES     
    6223 H6         -81.1458   -61.7602   118.8106 H6            1 RES     
    6224 H6         -82.8440   -62.0563   118.5275 H6            1 RES     
    6225 H6         -81.3995   -63.8976   117.6000 H6            1 RES     
    6226 H6         -82.5950   -64.5092   118.7726 H6            1 RES     
    6227 H6         -80.9652   -64.6739   120.5251 H6            1 RES     
    6228 H6         -80.3947   -65.6286   119.1680 H6            1 RES     
    6229 H6         -79.3486   -62.7484   119.2078 H6            1 RES     
    6230 H6         -78.9455   -63.7172   120.6258 H6            1 RES     
    6231 H6         -77.8007   -65.3992   119.3142 H6            1 RES     
    6232 H6         -77.1702   -63.7445   118.9890 H6            1 RES     
    6233 H6         -78.4679   -63.6772   116.8327 H6            1 RES     
    6234 H6         -77.2832   -65.0362   116.9180 H6            1 RES     
    6235 H6         -79.0355   -65.3721   117.1497 H6            1 RES     
    6236 H6         -82.4728   -58.4517   123.9734 H6            1 RES     
    6237 H6         -81.1619   -59.4853   123.6974 H6            1 RES     
    6238 H6         -81.0025   -61.3957   126.0361 H6            1 RES     
    6239 H6         -82.0385   -61.1206   127.4795 H6            1 RES     
    6240 H6         -83.3542   -61.4246   124.6699 H6            1 RES     
    6241 H6         -85.2907   -62.1200   125.7674 H6            1 RES     
    6242 H6         -84.4513   -62.2344   127.3441 H6            1 RES     
    6243 H6         -86.0121   -60.3564   127.1928 H6            1 RES     
    6244 H6         -84.3277   -59.8430   127.5691 H6            1 RES     
    6245 H6         -84.0651   -58.8647   125.3959 H6            1 RES     
    6246 H6         -85.4884   -59.6843   124.7108 H6            1 RES     
    6247 H6         -85.7656   -57.2517   125.0502 H6            1 RES     
    6248 H6         -86.8974   -58.2481   126.0448 H6            1 RES     
    6249 H6         -85.3431   -57.9812   128.0055 H6            1 RES     
    6250 H6         -84.2994   -56.8650   127.0500 H6            1 RES     
    6251 H6         -86.2562   -55.2890   126.8631 H6            1 RES     
    6252 H6         -87.3259   -56.5523   127.6034 H6            1 RES     
    6253 H6         -84.9909   -55.1575   128.9626 H6            1 RES     
    6254 H6         -85.9201   -56.5574   129.6760 H6            1 RES     
    6255 H6         -87.0066   -53.7889   128.9540 H6            1 RES     
    6256 H6         -86.7032   -54.4704   130.6066 H6            1 RES     
    6257 H6         -87.9858   -55.1982   129.5636 H6            1 RES     
    6258 H6         -82.6470   -63.8243   126.3256 H6            1 RES     
    6259 H6         -81.7639   -63.1904   124.9045 H6            1 RES     
    6260 H6         -83.5332   -63.6594   123.3280 H6            1 RES     
    6261 H6         -82.8731   -65.0466   124.1639 H6            1 RES     
    6262 H6         -85.7364   -64.0019   124.5532 H6            1 RES     
    6263 H6         -85.1397   -65.4638   123.7218 H6            1 RES     
    6264 H6         -84.9540   -64.8250   126.7029 H6            1 RES     
    6265 H6         -84.1130   -66.2410   125.9420 H6            1 RES     
    6266 H6         -86.2110   -67.3028   125.3112 H6            1 RES     
    6267 H6         -87.1593   -65.8442   125.7511 H6            1 RES     
    6268 H6         -87.4088   -67.5102   127.5390 H6            1 RES     
    6269 H6         -86.6079   -66.0168   128.0923 H6            1 RES     
    6270 H6         -85.5113   -67.8620   129.1700 H6            1 RES     
    6271 H6         -84.3731   -67.1257   128.0335 H6            1 RES     
    6272 H6         -84.7757   -68.9827   126.3900 H6            1 RES     
    6273 H6         -84.1619   -69.5546   127.9739 H6            1 RES     
    6274 H6         -87.0946   -69.7286   127.0096 H6            1 RES     
    6275 H6         -85.8963   -71.0591   127.0980 H6            1 RES     
    6276 H6         -85.7585   -70.8037   129.5889 H6            1 RES     
    6277 H6         -87.0141   -69.4995   129.5193 H6            1 RES     
    6278 H6         -87.4310   -71.1678   129.0194 H6            1 RES     
    6279 C0         -76.7199   -52.4688   139.2418 C0            1 RES     
    6280 C0         -78.5329   -52.7326   138.9877 C0            1 RES     
    6281 C0         -78.8748   -53.9877   139.4749 C0            1 RES     
    6282 S1         -80.4400   -54.5587   139.0555 S1            1 RES     
    6283 C0         -81.0537   -53.3230   138.1326 C0            1 RES     
    6284 C0         -79.8639   -52.3233   138.2016 C0            1 RES     
    6285 C0         -77.7002   -54.8230   139.7287 C0            1 RES     
    6286 C0         -76.7486   -53.9859   138.8895 C0            1 RES     
    6287 C0         -76.6433   -54.4805   137.6261 C0            1 RES     
    6288 C0         -77.2653   -55.7078   137.4097 C0            1 RES     
    6289 S1         -77.9912   -56.4172   138.8624 S1            1 RES     
    6290 H2         -79.9470   -51.4333   137.5895 H2            1 RES     
    6291 H2         -76.2972   -53.8991   136.7873 H2            1 RES     
    6292 N3         -84.2221   -55.4926   137.0339 N3            1 RES     
    6293 C0         -83.0407   -55.0449   137.4857 C0            1 RES     
    6294 C0         -82.5803   -53.6450   137.4711 C0            1 RES     
    6295 C0         -83.6439   -52.8211   136.8594 C0            1 RES     
    6296 N3         -83.5795   -51.4658   136.6642 N3            1 RES     
    6297 S1         -85.0535   -51.0942   135.9825 S1            1 RES     
    6298 N3         -85.8182   -52.5545   135.8699 N3            1 RES     
    6299 C0         -84.9105   -53.3899   136.3926 C0            1 RES     
    6300 C0         -85.2012   -54.7296   136.4744 C0            1 RES     
    6301 H4         -82.4171   -55.8217   137.8692 H4            1 RES     
    6302 C5         -61.1010   -51.9533   150.7308 C5            1 RES     
    6303 C5         -62.4609   -51.8826   149.9797 C5            1 RES     
    6304 C5         -62.3886   -51.1289   148.6112 C5            1 RES     
    6305 C5         -63.6312   -51.2533   147.6018 C5            1 RES     
    6306 C5         -64.9975   -50.4883   147.8738 C5            1 RES     
    6307 C5         -66.3902   -50.7716   147.0036 C5            1 RES     
    6308 C5         -66.7551   -50.2642   145.4728 C5            1 RES     
    6309 C5         -68.3067   -50.2100   144.6545 C5            1 RES     
    6310 C5         -69.1975   -51.3276   143.7231 C5            1 RES     
    6311 C5         -70.8024   -51.4812   142.9201 C5            1 RES     
    6312 C5         -71.5896   -51.0693   141.3756 C5            1 RES     
    6313 C5         -70.6359   -49.7960   140.9979 C5            1 RES     
    6314 C5         -70.4515   -48.5761   142.0112 C5            1 RES     
    6315 C5         -69.1463   -47.6917   141.8044 C5            1 RES     
    6316 C5         -69.0522   -46.3844   142.6810 C5            1 RES     
    6317 C5         -70.3035   -45.4828   142.6003 C5            1 RES     
    6318 C5         -70.7135   -45.0939   141.1592 C5            1 RES     
    6319 C5         -70.5721   -43.6121   140.7924 C5            1 RES     
    6320 C5         -69.1532   -43.0626   140.8907 C5            1 RES     
    6321 C5         -73.2306   -51.4771   140.3549 C5            1 RES     
    6322 C0         -75.1267   -51.9631   140.3400 C0            1 RES     
    6323 C5         -75.6194   -51.2279   141.6128 C5            1 RES     
    6324 C5         -74.6515   -51.2808   142.8917 C5            1 RES     
    6325 C5         -74.8351   -52.5497   143.7420 C5            1 RES     
    6326 C5         -74.7936   -53.9114   143.0108 C5            1 RES     
    6327 C5         -73.5485   -54.1708   142.1348 C5            1 RES     
    6328 C5         -73.3621   -55.6206   141.7069 C5            1 RES     
    6329 C5         -74.5992   -56.1849   141.0075 C5            1 RES     
    6330 C5         -74.4680   -57.6931   140.8226 C5            1 RES     
    6331 C5         -75.8212   -58.2698   140.4292 C5            1 RES     
    6332 C5         -75.8335   -59.7812   140.4244 C5            1 RES     
    6333 C5         -74.7501   -49.9628   143.7331 C5            1 RES     
    6334 C5         -73.6340   -49.5323   144.7606 C5            1 RES     
    6335 C5         -73.4613   -50.2033   146.1506 C5            1 RES     
    6336 C5         -74.7667   -50.2180   146.9564 C5            1 RES     
    6337 C5         -74.5740   -50.5814   148.4460 C5            1 RES     
    6338 C5         -75.9122   -50.9481   149.1247 C5            1 RES     
    6339 C5         -77.0181   -49.8734   149.0685 C5            1 RES     
    6340 C5         -76.7375   -48.5922   149.8757 C5            1 RES     
    6341 C5         -76.5713   -48.8043   151.3935 C5            1 RES     
    6342 C5         -77.8041   -49.4206   152.0607 C5            1 RES     
    6343 H6         -60.3280   -52.4861   150.1311 H6            1 RES     
    6344 H6         -60.7055   -50.9494   150.9951 H6            1 RES     
    6345 H6         -61.2090   -52.5274   151.6823 H6            1 RES     
    6346 H6         -62.7609   -52.9363   149.8013 H6            1 RES     
    6347 H6         -63.2035   -51.4018   150.6480 H6            1 RES     
    6348 H6         -62.0926   -50.0711   148.7938 H6            1 RES     
    6349 H6         -61.5231   -51.6051   148.0915 H6            1 RES     
    6350 H6         -63.8348   -52.3383   147.5156 H6            1 RES     
    6351 H6         -63.2575   -50.8839   146.6257 H6            1 RES     
    6352 H6         -64.7677   -49.3978   147.9241 H6            1 RES     
    6353 H6         -65.2284   -50.7781   148.9269 H6            1 RES     
    6354 H6         -67.1404   -50.2553   147.6426 H6            1 RES     
    6355 H6         -66.5744   -51.8566   147.0857 H6            1 RES     
    6356 H6         -66.4783   -49.1866   145.5883 H6            1 RES     
    6357 H6         -65.9781   -50.6730   144.7947 H6            1 RES     
    6358 H6         -68.0910   -49.3759   143.9550 H6            1 RES     
    6359 H6         -68.9585   -49.7678   145.4382 H6            1 RES     
    6360 H6         -68.4536   -51.6816   142.9800 H6            1 RES     
    6361 H6         -69.2631   -52.1185   144.4977 H6            1 RES     
    6362 H6         -71.4808   -51.1647   143.7181 H6            1 RES     
    6363 H6         -70.8647   -52.5772   142.8981 H6            1 RES     
    6364 H6         -71.0049   -51.7765   140.7455 H6            1 RES     
    6365 H6         -70.7863   -49.4294   139.9627 H6            1 RES     
    6366 H6         -69.5925   -50.2087   140.9859 H6            1 RES     
    6367 H6         -70.3820   -48.9192   143.0624 H6            1 RES     
    6368 H6         -71.3511   -47.9491   141.9117 H6            1 RES     
    6369 H6         -69.0431   -47.4086   140.7436 H6            1 RES     
    6370 H6         -68.2225   -48.2788   142.0168 H6            1 RES     
    6371 H6         -68.1554   -45.7891   142.3830 H6            1 RES     
    6372 H6         -68.9038   -46.6486   143.7538 H6            1 RES     
    6373 H6         -71.1247   -46.0713   143.0545 H6            1 RES     
    6374 H6         -70.2179   -44.5820   143.2509 H6            1 RES     
    6375 H6         -70.1960   -45.7011   140.3981 H6            1 RES     
    6376 H6         -71.7924   -45.3319   141.0515 H6            1 RES     
    6377 H6         -71.2405   -43.0073   141.4404 H6            1 RES     
    6378 H6         -70.9171   -43.5028   139.7401 H6            1 RES     
    6379 H6         -68.4564   -43.6439   140.2524 H6            1 RES     
    6380 H6         -69.1592   -42.0068   140.5412 H6            1 RES     
    6381 H6         -68.8003   -43.0770   141.9422 H6            1 RES     
    6382 H6         -72.8407   -52.2934   139.7049 H6            1 RES     
    6383 H6         -73.2064   -50.6434   139.6215 H6            1 RES     
    6384 H6         -75.7065   -50.1826   141.2592 H6            1 RES     
    6385 H6         -76.6289   -51.5923   141.8871 H6            1 RES     
    6386 H6         -73.6143   -51.2723   142.6134 H6            1 RES     
    6387 H6         -74.0427   -52.5579   144.5112 H6            1 RES     
    6388 H6         -75.8130   -52.4884   144.2560 H6            1 RES     
    6389 H6         -74.8380   -54.6864   143.8041 H6            1 RES     
    6390 H6         -75.7071   -53.9969   142.3858 H6            1 RES     
    6391 H6         -73.6490   -53.6409   141.2082 H6            1 RES     
    6392 H6         -72.6335   -53.8455   142.6552 H6            1 RES     
    6393 H6         -72.4847   -55.6959   141.0232 H6            1 RES     
    6394 H6         -73.1491   -56.2037   142.6244 H6            1 RES     
    6395 H6         -75.4707   -56.0268   141.6704 H6            1 RES     
    6396 H6         -74.7931   -55.6692   140.0391 H6            1 RES     
    6397 H6         -73.6897   -57.9340   140.0650 H6            1 RES     
    6398 H6         -74.1814   -58.1377   141.7985 H6            1 RES     
    6399 H6         -76.0570   -57.9198   139.4152 H6            1 RES     
    6400 H6         -76.5941   -57.9313   141.1597 H6            1 RES     
    6401 H6         -75.1280   -60.1590   139.6583 H6            1 RES     
    6402 H6         -76.8626   -60.1253   140.1854 H6            1 RES     
    6403 H6         -75.5532   -60.1609   141.4291 H6            1 RES     
    6404 H6         -75.7521   -49.8782   144.1903 H6            1 RES     
    6405 H6         -74.6599   -49.1556   142.9712 H6            1 RES     
    6406 H6         -72.6466   -49.4923   144.2631 H6            1 RES     
    6407 H6         -73.8598   -48.4703   144.9996 H6            1 RES     
    6408 H6         -73.0452   -51.2298   146.0782 H6            1 RES     
    6409 H6         -72.7087   -49.5944   146.7079 H6            1 RES     
    6410 H6         -75.4299   -50.9610   146.4685 H6            1 RES     
    6411 H6         -75.2383   -49.2133   146.9163 H6            1 RES     
    6412 H6         -74.0693   -49.7460   148.9842 H6            1 RES     
    6413 H6         -73.9201   -51.4764   148.5332 H6            1 RES     
    6414 H6         -75.7302   -51.2481   150.1783 H6            1 RES     
    6415 H6         -76.3022   -51.8465   148.5995 H6            1 RES     
    6416 H6         -77.9621   -50.3252   149.4357 H6            1 RES     
    6417 H6         -77.2079   -49.5968   148.0110 H6            1 RES     
    6418 H6         -75.8258   -48.0980   149.4790 H6            1 RES     
    6419 H6         -77.5910   -47.8962   149.7165 H6            1 RES     
    6420 H6         -75.6849   -49.4383   151.6006 H6            1 RES     
    6421 H6         -76.3912   -47.8111   151.8594 H6            1 RES     
    6422 H6         -78.7003   -48.7888   151.8821 H6            1 RES     
    6423 H6         -77.9950   -50.4456   151.6821 H6            1 RES     
    6424 H6         -77.6348   -49.4938   153.1556 H6            1 RES     
    6425 C0         -88.0791   -57.7230   133.3547 C0            1 RES     
    6426 C0         -87.2397   -58.7027   134.6802 C0            1 RES     
    6427 C0         -87.7553   -58.3216   135.9125 C0            1 RES     
    6428 S1         -86.8974   -58.8774   137.2933 S1            1 RES     
    6429 C0         -85.6431   -59.7402   136.6317 C0            1 RES     
    6430 C0         -85.9802   -59.5836   135.1213 C0            1 RES     
    6431 C0         -88.5318   -57.0839   135.8300 C0            1 RES     
    6432 C0         -87.9706   -56.6554   134.4838 C0            1 RES     
    6433 C0         -86.9162   -55.8090   134.6384 C0            1 RES     
    6434 C0         -86.6789   -55.3797   135.9419 C0            1 RES     
    6435 S1         -87.8673   -55.9588   137.1221 S1            1 RES     
    6436 H2         -85.2529   -59.9790   134.4224 H2            1 RES     
    6437 H2         -86.1784   -55.6331   133.8729 H2            1 RES     
    6438 N3         -83.8275   -60.1335   140.1676 N3            1 RES     
    6439 C0         -84.5974   -59.7740   139.1292 C0            1 RES     
    6440 C0         -84.5383   -60.3384   137.7690 C0            1 RES     
    6441 C0         -83.4728   -61.3623   137.7456 C0            1 RES     
    6442 N3         -83.1130   -62.1030   136.6498 N3            1 RES     
    6443 S1         -81.9046   -63.0961   137.2235 S1            1 RES     
    6444 N3         -81.7472   -62.6551   138.8080 N3            1 RES     
    6445 C0         -82.6769   -61.6980   138.9286 C0            1 RES     
    6446 C0         -82.8493   -61.0802   140.1430 C0            1 RES     
    6447 H4         -85.2889   -58.9972   139.3694 H4            1 RES     
    6448 C5        -104.1538   -51.5731   124.4106 C5            1 RES     
    6449 C5        -102.9669   -52.2727   125.1320 C5            1 RES     
    6450 C5        -101.6172   -52.1991   124.3451 C5            1 RES     
    6451 C5        -100.2628   -52.6008   125.1085 C5            1 RES     
    6452 C5         -99.9139   -54.1175   125.4310 C5            1 RES     
    6453 C5         -98.6583   -54.5723   126.4278 C5            1 RES     
    6454 C5         -97.0404   -54.5826   126.0873 C5            1 RES     
    6455 C5         -95.7258   -55.3783   126.9351 C5            1 RES     
    6456 C5         -94.7169   -54.9406   128.2391 C5            1 RES     
    6457 C5         -93.4285   -55.6469   129.2809 C5            1 RES     
    6458 C5         -91.6621   -55.8805   129.2805 C5            1 RES     
    6459 C5         -91.4622   -55.8951   127.6578 C5            1 RES     
    6460 C5         -92.2804   -56.9101   126.7363 C5            1 RES     
    6461 C5         -92.4213   -56.5011   125.2062 C5            1 RES     
    6462 C5         -93.0682   -57.5832   124.2591 C5            1 RES     
    6463 C5         -92.4143   -58.9785   124.3612 C5            1 RES     
    6464 C5         -90.8808   -58.9776   124.1504 C5            1 RES     
    6465 C5         -90.3711   -59.6830   122.8883 C5            1 RES     
    6466 C5         -90.8839   -59.0962   121.5778 C5            1 RES     
    6467 C5         -90.1980   -56.3714   130.5120 C5            1 RES     
    6468 C0         -89.5831   -57.3550   132.0887 C0            1 RES     
    6469 C5         -90.4724   -58.6216   131.9994 C5            1 RES     
    6470 C5         -92.0044   -58.3941   131.5791 C5            1 RES     
    6471 C5         -92.9133   -58.0289   132.7653 C5            1 RES     
    6472 C5         -92.4570   -56.8730   133.6851 C5            1 RES     
    6473 C5         -92.1299   -55.5378   132.9814 C5            1 RES     
    6474 C5         -92.0180   -54.3379   133.9130 C5            1 RES     
    6475 C5         -91.0173   -54.5714   135.0453 C5            1 RES     
    6476 C5         -91.1188   -53.4612   136.0862 C5            1 RES     
    6477 C5         -90.3610   -53.8781   137.3394 C5            1 RES     
    6478 C5         -90.5782   -52.9298   138.4963 C5            1 RES     
    6479 C5         -92.5487   -59.6018   130.7424 C5            1 RES     
    6480 C5         -93.8291   -59.4866   129.8291 C5            1 RES     
    6481 C5         -95.2733   -59.4528   130.3994 C5            1 RES     
    6482 C5         -95.5551   -60.6304   131.3415 C5            1 RES     
    6483 C5         -97.0524   -60.8137   131.6773 C5            1 RES     
    6484 C5         -97.2578   -61.7449   132.8925 C5            1 RES     
    6485 C5         -96.6522   -63.1592   132.7732 C5            1 RES     
    6486 C5         -97.3053   -64.0719   131.7186 C5            1 RES     
    6487 C5         -98.7966   -64.3792   131.9597 C5            1 RES     
    6488 C5         -99.0661   -65.0765   133.2961 C5            1 RES     
    6489 H6        -103.9548   -50.4889   124.2497 H6            1 RES     
    6490 H6        -104.3882   -52.0336   123.4272 H6            1 RES     
    6491 H6        -105.0791   -51.6321   125.0326 H6            1 RES     
    6492 H6        -102.8531   -51.7469   126.1029 H6            1 RES     
    6493 H6        -103.2478   -53.3284   125.3215 H6            1 RES     
    6494 H6        -101.7328   -52.7318   123.3742 H6            1 RES     
    6495 H6        -101.5165   -51.1166   124.0919 H6            1 RES     
    6496 H6        -100.2731   -52.0230   126.0530 H6            1 RES     
    6497 H6         -99.4398   -52.2219   124.4698 H6            1 RES     
    6498 H6         -99.8790   -54.6677   124.4611 H6            1 RES     
    6499 H6        -100.8468   -54.4773   125.9275 H6            1 RES     
    6500 H6         -98.9042   -55.6449   126.5917 H6            1 RES     
    6501 H6         -98.8308   -54.0428   127.3806 H6            1 RES     
    6502 H6         -97.0843   -55.1165   125.1053 H6            1 RES     
    6503 H6         -96.7520   -53.5453   125.8199 H6            1 RES     
    6504 H6         -95.0323   -55.5020   126.0775 H6            1 RES     
    6505 H6         -96.1512   -56.3897   127.1102 H6            1 RES     
    6506 H6         -94.3485   -53.9367   127.9432 H6            1 RES     
    6507 H6         -95.5265   -54.7689   128.9774 H6            1 RES     
    6508 H6         -93.8764   -56.6024   129.5704 H6            1 RES     
    6509 H6         -93.5499   -54.9891   130.1516 H6            1 RES     
    6510 H6         -91.3941   -54.8037   129.3686 H6            1 RES     
    6511 H6         -90.3988   -55.8509   127.3481 H6            1 RES     
    6512 H6         -91.8836   -54.9167   127.3050 H6            1 RES     
    6513 H6         -93.3263   -57.0301   127.0816 H6            1 RES     
    6514 H6         -91.7752   -57.8848   126.8207 H6            1 RES     
    6515 H6         -91.4369   -56.2216   124.7952 H6            1 RES     
    6516 H6         -93.0334   -55.5764   125.0898 H6            1 RES     
    6517 H6         -93.0230   -57.2373   123.1980 H6            1 RES     
    6518 H6         -94.1503   -57.7070   124.4967 H6            1 RES     
    6519 H6         -92.6295   -59.3341   125.3880 H6            1 RES     
    6520 H6         -92.9104   -59.7270   123.7010 H6            1 RES     
    6521 H6         -90.4531   -57.9620   124.1892 H6            1 RES     
    6522 H6         -90.4335   -59.5253   125.0062 H6            1 RES     
    6523 H6         -90.6411   -60.7588   122.9337 H6            1 RES     
    6524 H6         -89.2612   -59.6032   122.8964 H6            1 RES     
    6525 H6         -90.6295   -58.0192   121.4975 H6            1 RES     
    6526 H6         -90.4015   -59.6395   120.7358 H6            1 RES     
    6527 H6         -91.9817   -59.2303   121.4925 H6            1 RES     
    6528 H6         -89.8588   -55.3516   130.8048 H6            1 RES     
    6529 H6         -89.4054   -56.6134   129.7728 H6            1 RES     
    6530 H6         -89.9591   -59.2122   131.2166 H6            1 RES     
    6531 H6         -90.4212   -59.1817   132.9537 H6            1 RES     
    6532 H6         -92.1149   -57.5888   130.8773 H6            1 RES     
    6533 H6         -93.9059   -57.7633   132.3605 H6            1 RES     
    6534 H6         -93.0309   -58.9240   133.4050 H6            1 RES     
    6535 H6         -93.2890   -56.7037   134.3999 H6            1 RES     
    6536 H6         -91.5683   -57.2148   134.2561 H6            1 RES     
    6537 H6         -91.1601   -55.6025   132.5290 H6            1 RES     
    6538 H6         -92.8867   -55.3081   132.2143 H6            1 RES     
    6539 H6         -91.7103   -53.4407   133.3271 H6            1 RES     
    6540 H6         -93.0275   -54.1594   134.3329 H6            1 RES     
    6541 H6         -91.2956   -55.5093   135.5617 H6            1 RES     
    6542 H6         -89.9778   -54.6757   134.6582 H6            1 RES     
    6543 H6         -90.7324   -52.5001   135.6805 H6            1 RES     
    6544 H6         -92.1875   -53.3413   136.3611 H6            1 RES     
    6545 H6         -89.2894   -53.8896   137.0995 H6            1 RES     
    6546 H6         -90.7099   -54.8873   137.6642 H6            1 RES     
    6547 H6         -90.1785   -51.9289   138.2402 H6            1 RES     
    6548 H6         -90.0434   -53.3285   139.3849 H6            1 RES     
    6549 H6         -91.6615   -52.8657   138.7294 H6            1 RES     
    6550 H6         -92.6019   -60.5073   131.3728 H6            1 RES     
    6551 H6         -91.7572   -59.7716   129.9776 H6            1 RES     
    6552 H6         -93.7150   -58.6551   129.1082 H6            1 RES     
    6553 H6         -93.8107   -60.3992   129.1945 H6            1 RES     
    6554 H6         -95.5078   -58.4935   130.9061 H6            1 RES     
    6555 H6         -95.9640   -59.5268   129.5246 H6            1 RES     
    6556 H6         -94.9802   -60.4359   132.2697 H6            1 RES     
    6557 H6         -95.2003   -61.5728   130.8731 H6            1 RES     
    6558 H6         -97.6034   -61.1933   130.7860 H6            1 RES     
    6559 H6         -97.4989   -59.8332   131.9519 H6            1 RES     
    6560 H6         -98.3394   -61.8162   133.1336 H6            1 RES     
    6561 H6         -96.7688   -61.2519   133.7602 H6            1 RES     
    6562 H6         -96.7231   -63.6533   133.7636 H6            1 RES     
    6563 H6         -95.5677   -63.0770   132.5544 H6            1 RES     
    6564 H6         -97.1894   -63.6160   130.7129 H6            1 RES     
    6565 H6         -96.7511   -65.0368   131.7139 H6            1 RES     
    6566 H6         -99.3974   -63.4485   131.9022 H6            1 RES     
    6567 H6         -99.1420   -65.0540   131.1464 H6            1 RES     
    6568 H6         -98.4884   -66.0229   133.3651 H6            1 RES     
    6569 H6         -98.8021   -64.4210   134.1511 H6            1 RES     
    6570 H6        -100.1475   -65.3149   133.3779 H6            1 RES     
    6571 C0         -79.3954   -60.0157   143.8729 C0            1 RES     
    6572 C0         -81.0631   -59.3076   144.2452 C0            1 RES     
    6573 C0         -81.9599   -60.3514   144.4348 C0            1 RES     
    6574 S1         -83.6220   -59.9186   144.4796 S1            1 RES     
    6575 C0         -83.5863   -58.2743   144.2552 C0            1 RES     
    6576 C0         -82.0493   -58.0514   144.1662 C0            1 RES     
    6577 C0         -81.4229   -61.6339   143.9783 C0            1 RES     
    6578 C0         -80.3162   -61.0288   143.1299 C0            1 RES     
    6579 C0         -80.7070   -60.8993   141.8328 C0            1 RES     
    6580 C0         -81.9300   -61.4849   141.5145 C0            1 RES     
    6581 S1         -82.6831   -62.3628   142.8571 S1            1 RES     
    6582 H2         -81.7221   -57.0490   143.9177 H2            1 RES     
    6583 H2         -80.2366   -60.2262   141.1349 H2            1 RES     
    6584 N3         -87.5528   -58.0775   143.8295 N3            1 RES     
    6585 C0         -86.2673   -58.4513   143.9198 C0            1 RES     
    6586 C0         -85.1176   -57.5571   144.1450 C0            1 RES     
    6587 C0         -85.6278   -56.1733   144.2416 C0            1 RES     
    6588 N3         -84.8553   -55.0588   144.4415 N3            1 RES     
    6589 S1         -85.9624   -53.8152   144.4967 S1            1 RES     
    6590 N3         -87.4145   -54.5655   144.2548 N3            1 RES     
    6591 C0         -87.0524   -55.8497   144.1343 C0            1 RES     
    6592 C0         -88.0192   -56.8019   143.9229 C0            1 RES     
    6593 H4         -86.1271   -59.5025   143.7992 H4            1 RES     
    6594 C5         -64.5107   -71.6184   148.3491 C5            1 RES     
    6595 C5         -65.7027   -70.6289   148.2128 C5            1 RES     
    6596 C5         -65.4453   -69.4652   147.2001 C5            1 RES     
    6597 C5         -66.6911   -68.5648   146.7356 C5            1 RES     
    6598 C5         -67.3393   -67.4860   147.7062 C5            1 RES     
    6599 C5         -68.7733   -66.7049   147.3736 C5            1 RES     
    6600 C5         -69.0356   -65.4680   146.3083 C5            1 RES     
    6601 C5         -70.4040   -64.3767   146.1791 C5            1 RES     
    6602 C5         -71.9004   -64.4403   145.3625 C5            1 RES     
    6603 C5         -73.4251   -63.4944   145.2058 C5            1 RES     
    6604 C5         -74.0874   -62.1392   144.2573 C5            1 RES     
    6605 C5         -72.6633   -61.4001   143.9423 C5            1 RES     
    6606 C5         -71.6740   -60.9812   145.1233 C5            1 RES     
    6607 C5         -70.1510   -60.7765   144.7148 C5            1 RES     
    6608 C5         -69.2089   -60.1889   145.8344 C5            1 RES     
    6609 C5         -69.7441   -58.8977   146.4913 C5            1 RES     
    6610 C5         -70.0945   -57.7730   145.4871 C5            1 RES     
    6611 C5         -69.2165   -56.5175   145.5442 C5            1 RES     
    6612 C5         -67.7373   -56.7596   145.2645 C5            1 RES     
    6613 C5         -75.8173   -61.2786   143.8479 C5            1 RES     
    6614 C0         -77.6377   -60.8133   144.3970 C0            1 RES     
    6615 C5         -77.4286   -60.5884   145.9165 C5            1 RES     
    6616 C5         -76.4623   -61.6256   146.6688 C5            1 RES     
    6617 C5         -77.1792   -62.9113   147.1156 C5            1 RES     
    6618 C5         -78.0173   -63.6659   146.0579 C5            1 RES     
    6619 C5         -77.2847   -64.0286   144.7477 C5            1 RES     
    6620 C5         -78.0047   -65.0507   143.8777 C5            1 RES     
    6621 C5         -79.4400   -64.6332   143.5559 C5            1 RES     
    6622 C5         -80.1985   -65.7845   142.9035 C5            1 RES     
    6623 C5         -81.6864   -65.4614   142.8908 C5            1 RES     
    6624 C5         -82.5350   -66.6318   142.4496 C5            1 RES     
    6625 C5         -75.6773   -60.9288   147.8320 C5            1 RES     
    6626 C5         -74.3624   -61.5429   148.4489 C5            1 RES     
    6627 C5         -74.3703   -62.7598   149.4137 C5            1 RES     
    6628 C5         -75.3154   -62.5530   150.6043 C5            1 RES     
    6629 C5         -75.1205   -63.5834   151.7395 C5            1 RES     
    6630 C5         -76.3079   -63.5797   152.7274 C5            1 RES     
    6631 C5         -76.6244   -62.2288   153.4025 C5            1 RES     
    6632 C5         -75.5556   -61.7130   154.3841 C5            1 RES     
    6633 C5         -75.2940   -62.6263   155.5981 C5            1 RES     
    6634 C5         -76.5355   -62.8586   156.4638 C5            1 RES     
    6635 H6         -64.2709   -72.1086   147.3779 H6            1 RES     
    6636 H6         -63.5889   -71.1282   148.7285 H6            1 RES     
    6637 H6         -64.7646   -72.4411   149.0601 H6            1 RES     
    6638 H6         -66.5604   -71.2383   147.8592 H6            1 RES     
    6639 H6         -65.9355   -70.2233   149.2181 H6            1 RES     
    6640 H6         -64.5880   -68.8527   147.5602 H6            1 RES     
    6641 H6         -65.0858   -69.9877   146.2815 H6            1 RES     
    6642 H6         -67.4725   -69.2821   146.4182 H6            1 RES     
    6643 H6         -66.3376   -68.0081   145.8445 H6            1 RES     
    6644 H6         -66.5391   -66.7600   147.9838 H6            1 RES     
    6645 H6         -67.5196   -68.0779   148.6354 H6            1 RES     
    6646 H6         -68.9974   -66.2552   148.3663 H6            1 RES     
    6647 H6         -69.5120   -67.5056   147.1974 H6            1 RES     
    6648 H6         -68.1937   -64.8016   146.6222 H6            1 RES     
    6649 H6         -68.7364   -65.8284   145.3027 H6            1 RES     
    6650 H6         -69.8777   -63.5110   145.7262 H6            1 RES     
    6651 H6         -70.5656   -64.0925   147.2411 H6            1 RES     
    6652 H6         -71.6082   -64.7145   144.3279 H6            1 RES     
    6653 H6         -72.2682   -65.3721   145.8384 H6            1 RES     
    6654 H6         -73.6758   -63.3027   146.2536 H6            1 RES     
    6655 H6         -74.0870   -64.3112   144.8894 H6            1 RES     
    6656 H6         -74.1030   -62.6685   143.2782 H6            1 RES     
    6657 H6         -72.7489   -60.5879   143.1929 H6            1 RES     
    6658 H6         -72.0418   -62.1773   143.4237 H6            1 RES     
    6659 H6         -71.6388   -61.7466   145.9237 H6            1 RES     
    6660 H6         -72.0771   -60.0510   145.5529 H6            1 RES     
    6661 H6         -70.0799   -60.1299   143.8242 H6            1 RES     
    6662 H6         -69.6879   -61.7365   144.3874 H6            1 RES     
    6663 H6         -68.1943   -59.9885   145.4126 H6            1 RES     
    6664 H6         -69.0621   -60.9371   146.6475 H6            1 RES     
    6665 H6         -70.6681   -59.1955   147.0246 H6            1 RES     
    6666 H6         -69.0705   -58.5225   147.2961 H6            1 RES     
    6667 H6         -70.1304   -58.1364   144.4467 H6            1 RES     
    6668 H6         -71.1248   -57.4341   145.7232 H6            1 RES     
    6669 H6         -69.3232   -56.0390   146.5403 H6            1 RES     
    6670 H6         -69.6064   -55.8122   144.7769 H6            1 RES     
    6671 H6         -67.5927   -57.2368   144.2733 H6            1 RES     
    6672 H6         -67.2130   -55.7788   145.2672 H6            1 RES     
    6673 H6         -67.2885   -57.3941   146.0560 H6            1 RES     
    6674 H6         -76.0557   -61.7981   142.8918 H6            1 RES     
    6675 H6         -75.4532   -60.3136   143.4362 H6            1 RES     
    6676 H6         -76.9769   -59.5782   145.9426 H6            1 RES     
    6677 H6         -78.4110   -60.5484   146.4267 H6            1 RES     
    6678 H6         -75.6551   -61.9533   146.0408 H6            1 RES     
    6679 H6         -76.4132   -63.6095   147.4968 H6            1 RES     
    6680 H6         -77.8614   -62.6601   147.9496 H6            1 RES     
    6681 H6         -78.3559   -64.6029   146.5471 H6            1 RES     
    6682 H6         -78.9111   -63.0513   145.8213 H6            1 RES     
    6683 H6         -77.2217   -63.1594   144.1233 H6            1 RES     
    6684 H6         -76.2736   -64.4105   144.9616 H6            1 RES     
    6685 H6         -77.4394   -65.1930   142.9274 H6            1 RES     
    6686 H6         -78.0067   -66.0070   144.4369 H6            1 RES     
    6687 H6         -79.9578   -64.4197   144.5099 H6            1 RES     
    6688 H6         -79.4678   -63.7152   142.9251 H6            1 RES     
    6689 H6         -79.8178   -65.9792   141.8765 H6            1 RES     
    6690 H6         -80.0544   -66.6913   143.5273 H6            1 RES     
    6691 H6         -81.8476   -64.6339   142.1870 H6            1 RES     
    6692 H6         -82.0129   -65.1809   143.9206 H6            1 RES     
    6693 H6         -82.2911   -66.8973   141.4021 H6            1 RES     
    6694 H6         -83.6046   -66.3392   142.5206 H6            1 RES     
    6695 H6         -82.3554   -67.4980   143.1201 H6            1 RES     
    6696 H6         -76.3754   -60.6235   148.6317 H6            1 RES     
    6697 H6         -75.2783   -60.0009   147.3629 H6            1 RES     
    6698 H6         -73.6135   -61.7266   147.6554 H6            1 RES     
    6699 H6         -73.9198   -60.7217   149.0536 H6            1 RES     
    6700 H6         -74.6110   -63.7114   148.8955 H6            1 RES     
    6701 H6         -73.3287   -62.8654   149.8034 H6            1 RES     
    6702 H6         -76.3470   -62.6222   150.2035 H6            1 RES     
    6703 H6         -75.1501   -61.5438   151.0377 H6            1 RES     
    6704 H6         -74.1589   -63.3943   152.2705 H6            1 RES     
    6705 H6         -75.0686   -64.6084   151.3120 H6            1 RES     
    6706 H6         -76.1566   -64.3622   153.5008 H6            1 RES     
    6707 H6         -77.2086   -63.8742   152.1469 H6            1 RES     
    6708 H6         -77.5869   -62.3272   153.9447 H6            1 RES     
    6709 H6         -76.7957   -61.4593   152.6218 H6            1 RES     
    6710 H6         -74.6007   -61.5541   153.8403 H6            1 RES     
    6711 H6         -75.8924   -60.7228   154.7641 H6            1 RES     
    6712 H6         -74.8883   -63.6039   155.2662 H6            1 RES     
    6713 H6         -74.5217   -62.1388   156.2320 H6            1 RES     
    6714 H6         -76.9459   -61.8910   156.8238 H6            1 RES     
    6715 H6         -77.3203   -63.4049   155.9016 H6            1 RES     
    6716 H6         -76.2623   -63.4771   157.3446 H6            1 RES     
    6717 C0         -92.5292   -56.4772   141.3676 C0            1 RES     
    6718 C0         -92.1742   -58.2006   141.9378 C0            1 RES     
    6719 C0         -92.1864   -58.2235   143.3267 C0            1 RES     
    6720 S1         -91.5723   -59.6493   144.0627 S1            1 RES     
    6721 C0         -91.1322   -60.5816   142.7617 C0            1 RES     
    6722 C0         -91.5631   -59.6394   141.6014 C0            1 RES     
    6723 C0         -92.1477   -56.8793   143.9039 C0            1 RES     
    6724 C0         -91.6678   -56.1949   142.6343 C0            1 RES     
    6725 C0         -90.3127   -56.0696   142.6263 C0            1 RES     
    6726 C0         -89.6719   -56.4192   143.8124 C0            1 RES     
    6727 S1         -90.7742   -56.8702   145.1246 S1            1 RES     
    6728 H2         -91.3002   -59.9581   140.5999 H2            1 RES     
    6729 H2         -89.7353   -55.9181   141.7290 H2            1 RES     
    6730 N3         -89.3004   -63.2616   145.0889 N3            1 RES     
    6731 C0         -89.8964   -62.1798   144.5646 C0            1 RES     
    6732 C0         -90.3791   -62.0412   143.1790 C0            1 RES     
    6733 C0         -90.0802   -63.2994   142.4636 C0            1 RES     
    6734 N3         -90.3726   -63.5486   141.1478 N3            1 RES     
    6735 S1         -89.8442   -65.1112   140.9145 S1            1 RES     
    6736 N3         -89.2171   -65.5413   142.3814 N3            1 RES     
    6737 C0         -89.4265   -64.4384   143.1126 C0            1 RES     
    6738 C0         -89.0301   -64.4205   144.4274 C0            1 RES     
    6739 H4         -89.9921   -61.3758   145.2600 H4            1 RES     
    6740 C5        -103.6834   -40.6095   141.2509 C5            1 RES     
    6741 C5        -102.9861   -41.9995   141.2415 C5            1 RES     
    6742 C5        -101.9692   -42.1885   140.0684 C5            1 RES     
    6743 C5        -100.9633   -43.4390   140.1208 C5            1 RES     
    6744 C5        -101.4673   -44.9186   139.8323 C5            1 RES     
    6745 C5        -100.5340   -46.2706   140.1118 C5            1 RES     
    6746 C5         -99.2730   -46.8419   139.2078 C5            1 RES     
    6747 C5         -98.5044   -48.4193   139.2344 C5            1 RES     
    6748 C5         -97.2286   -49.1035   140.1369 C5            1 RES     
    6749 C5         -96.4008   -50.6859   140.3703 C5            1 RES     
    6750 C5         -95.0877   -51.6480   139.6457 C5            1 RES     
    6751 C5         -95.1927   -51.0263   138.1370 C5            1 RES     
    6752 C5         -96.5714   -51.0465   137.3322 C5            1 RES     
    6753 C5         -96.7051   -49.9855   136.1555 C5            1 RES     
    6754 C5         -97.9852   -50.1221   135.2449 C5            1 RES     
    6755 C5         -98.2082   -51.5438   134.6844 C5            1 RES     
    6756 C5         -96.9890   -52.1267   133.9294 C5            1 RES     
    6757 C5         -97.1661   -52.3406   132.4217 C5            1 RES     
    6758 C5         -97.4699   -51.0743   131.6285 C5            1 RES     
    6759 C5         -93.9665   -53.2245   140.0439 C5            1 RES     
    6760 C0         -93.7567   -54.9634   140.9178 C0            1 RES     
    6761 C5         -95.1994   -55.5181   140.7993 C5            1 RES     
    6762 C5         -96.3919   -54.4774   141.0642 C5            1 RES     
    6763 C5         -96.7416   -54.3186   142.5539 C5            1 RES     
    6764 C5         -95.5806   -54.0280   143.5328 C5            1 RES     
    6765 C5         -94.6863   -52.8191   143.1813 C5            1 RES     
    6766 C5         -93.7804   -52.3475   144.3112 C5            1 RES     
    6767 C5         -92.9109   -53.4746   144.8694 C5            1 RES     
    6768 C5         -92.2115   -53.0272   146.1488 C5            1 RES     
    6769 C5         -91.6227   -54.2438   146.8502 C5            1 RES     
    6770 C5         -91.0889   -53.9231   148.2274 C5            1 RES     
    6771 C5         -97.6401   -54.8063   140.1761 C5            1 RES     
    6772 C5         -98.7684   -53.7451   139.8803 C5            1 RES     
    6773 C5         -99.8377   -53.3345   140.9291 C5            1 RES     
    6774 C5        -100.5694   -54.5464   141.5200 C5            1 RES     
    6775 C5        -101.8401   -54.1773   142.3184 C5            1 RES     
    6776 C5        -102.3291   -55.3524   143.1936 C5            1 RES     
    6777 C5        -102.6376   -56.6691   142.4504 C5            1 RES     
    6778 C5        -103.8461   -56.6232   141.4968 C5            1 RES     
    6779 C5        -105.1957   -56.3113   142.1732 C5            1 RES     
    6780 C5        -105.5880   -57.3296   143.2474 C5            1 RES     
    6781 H6        -102.9457   -39.7808   141.3520 H6            1 RES     
    6782 H6        -104.2878   -40.4278   140.3367 H6            1 RES     
    6783 H6        -104.3721   -40.5232   142.1254 H6            1 RES     
    6784 H6        -102.4461   -42.0715   142.2086 H6            1 RES     
    6785 H6        -103.7703   -42.7825   141.2044 H6            1 RES     
    6786 H6        -102.5146   -42.1211   139.0999 H6            1 RES     
    6787 H6        -101.3276   -41.2768   140.1241 H6            1 RES     
    6788 H6        -100.5000   -43.4040   141.1258 H6            1 RES     
    6789 H6        -100.1835   -43.2234   139.3630 H6            1 RES     
    6790 H6        -101.8993   -44.9317   138.8039 H6            1 RES     
    6791 H6        -102.3490   -45.0076   140.5112 H6            1 RES     
    6792 H6        -101.3031   -47.0708   140.0340 H6            1 RES     
    6793 H6        -100.2286   -46.2052   141.1702 H6            1 RES     
    6794 H6         -99.7622   -46.8021   138.2026 H6            1 RES     
    6795 H6         -98.5053   -46.0419   139.1681 H6            1 RES     
    6796 H6         -98.1441   -48.4409   138.1849 H6            1 RES     
    6797 H6         -99.3844   -49.0976   139.2512 H6            1 RES     
    6798 H6         -96.4188   -48.3522   140.0326 H6            1 RES     
    6799 H6         -97.6763   -48.9402   141.1383 H6            1 RES     
    6800 H6         -97.2498   -51.3614   140.5125 H6            1 RES     
    6801 H6         -95.9957   -50.5066   141.3749 H6            1 RES     
    6802 H6         -94.2579   -50.9663   139.9384 H6            1 RES     
    6803 H6         -94.3494   -51.3240   137.4821 H6            1 RES     
    6804 H6         -95.0512   -49.9209   138.2685 H6            1 RES     
    6805 H6         -97.4368   -50.8316   137.9899 H6            1 RES     
    6806 H6         -96.6855   -52.0668   136.9342 H6            1 RES     
    6807 H6         -95.8121   -50.0198   135.5094 H6            1 RES     
    6808 H6         -96.7112   -48.9428   136.5503 H6            1 RES     
    6809 H6         -97.9267   -49.4010   134.3940 H6            1 RES     
    6810 H6         -98.8995   -49.8464   135.8199 H6            1 RES     
    6811 H6         -98.4163   -52.1823   135.5653 H6            1 RES     
    6812 H6         -99.1340   -51.6146   134.0681 H6            1 RES     
    6813 H6         -96.0706   -51.5413   134.1015 H6            1 RES     
    6814 H6         -96.7900   -53.1314   134.3575 H6            1 RES     
    6815 H6         -97.9757   -53.0800   132.2476 H6            1 RES     
    6816 H6         -96.2140   -52.7722   132.0399 H6            1 RES     
    6817 H6         -96.6780   -50.3117   131.7780 H6            1 RES     
    6818 H6         -97.5121   -51.3365   130.5486 H6            1 RES     
    6819 H6         -98.4545   -50.6561   131.9218 H6            1 RES     
    6820 H6         -93.0773   -52.7096   140.4740 H6            1 RES     
    6821 H6         -93.5719   -53.4347   139.0274 H6            1 RES     
    6822 H6         -95.2330   -55.8572   139.7462 H6            1 RES     
    6823 H6         -95.3150   -56.4014   141.4577 H6            1 RES     
    6824 H6         -96.1483   -53.4891   140.7220 H6            1 RES     
    6825 H6         -97.4699   -53.4933   142.6433 H6            1 RES     
    6826 H6         -97.2311   -55.2485   142.8998 H6            1 RES     
    6827 H6         -96.0517   -53.8464   144.5212 H6            1 RES     
    6828 H6         -94.9527   -54.9407   143.6062 H6            1 RES     
    6829 H6         -94.0026   -53.0968   142.4035 H6            1 RES     
    6830 H6         -95.3000   -51.9649   142.8533 H6            1 RES     
    6831 H6         -93.1257   -51.5237   143.9428 H6            1 RES     
    6832 H6         -94.4386   -51.9491   145.1084 H6            1 RES     
    6833 H6         -93.5753   -54.3122   145.1539 H6            1 RES     
    6834 H6         -92.1818   -53.8430   144.1117 H6            1 RES     
    6835 H6         -91.4283   -52.2685   145.9286 H6            1 RES     
    6836 H6         -92.9738   -52.5839   146.8230 H6            1 RES     
    6837 H6         -90.7924   -54.6194   146.2374 H6            1 RES     
    6838 H6         -92.4149   -55.0206   146.9710 H6            1 RES     
    6839 H6         -90.2487   -53.2057   148.1457 H6            1 RES     
    6840 H6         -90.7306   -54.8649   148.6955 H6            1 RES     
    6841 H6         -91.9008   -53.4982   148.8538 H6            1 RES     
    6842 H6         -98.0843   -55.7688   140.4869 H6            1 RES     
    6843 H6         -97.2104   -54.9484   139.1585 H6            1 RES     
    6844 H6         -98.3299   -52.8271   139.4456 H6            1 RES     
    6845 H6         -99.3610   -54.1825   139.0475 H6            1 RES     
    6846 H6         -99.4162   -52.7084   141.7430 H6            1 RES     
    6847 H6        -100.5832   -52.6983   140.3930 H6            1 RES     
    6848 H6         -99.8433   -55.0614   142.1814 H6            1 RES     
    6849 H6        -100.8772   -55.2295   140.7000 H6            1 RES     
    6850 H6        -102.6435   -53.8336   141.6265 H6            1 RES     
    6851 H6        -101.6173   -53.3380   143.0127 H6            1 RES     
    6852 H6        -103.2134   -55.0374   143.7869 H6            1 RES     
    6853 H6        -101.5174   -55.5698   143.9207 H6            1 RES     
    6854 H6        -102.8105   -57.4630   143.2052 H6            1 RES     
    6855 H6        -101.7414   -56.9868   141.8788 H6            1 RES     
    6856 H6        -103.6599   -55.8721   140.7006 H6            1 RES     
    6857 H6        -103.9290   -57.6179   141.0049 H6            1 RES     
    6858 H6        -105.1797   -55.2951   142.6176 H6            1 RES     
    6859 H6        -105.9822   -56.3231   141.3876 H6            1 RES     
    6860 H6        -105.6297   -58.3530   142.8171 H6            1 RES     
    6861 H6        -104.8719   -57.3154   144.0944 H6            1 RES     
    6862 H6        -106.5902   -57.0742   143.6514 H6            1 RES     
    6863 C0         -85.0210   -66.7741   146.7431 C0            1 RES     
    6864 C0         -85.9309   -65.6511   147.8973 C0            1 RES     
    6865 C0         -87.2115   -66.1528   148.0925 C0            1 RES     
    6866 S1         -88.3219   -65.1013   148.8756 S1            1 RES     
    6867 C0         -87.4173   -63.7359   149.1450 C0            1 RES     
    6868 C0         -86.0528   -64.2014   148.5610 C0            1 RES     
    6869 C0         -87.5569   -67.1866   147.1161 C0            1 RES     
    6870 C0         -86.4538   -66.8267   146.1342 C0            1 RES     
    6871 C0         -86.9092   -65.9767   145.1740 C0            1 RES     
    6872 C0         -88.2837   -65.7515   145.1765 C0            1 RES     
    6873 S1         -89.1701   -66.6998   146.3829 S1            1 RES     
    6874 H2         -85.2697   -63.4543   148.5133 H2            1 RES     
    6875 H2         -86.2639   -65.3497   144.5808 H2            1 RES     
    6876 N3         -90.6161   -61.6415   150.3003 N3            1 RES     
    6877 C0         -89.7588   -62.5407   149.7933 C0            1 RES     
    6878 C0         -88.2881   -62.4516   149.8261 C0            1 RES     
    6879 C0         -87.9223   -61.1908   150.5050 C0            1 RES     
    6880 N3         -86.6415   -60.7522   150.7199 N3            1 RES     
    6881 S1         -86.8476   -59.3186   151.5430 S1            1 RES     
    6882 N3         -88.4882   -59.1545   151.6499 N3            1 RES     
    6883 C0         -88.9236   -60.2617   151.0339 C0            1 RES     
    6884 C0         -90.2749   -60.4828   150.9285 C0            1 RES     
    6885 H4         -90.2463   -63.3683   149.3278 H4            1 RES     
    6886 C5         -78.5778   -84.3802   141.7708 C5            1 RES     
    6887 C5         -79.0247   -83.0220   142.3824 C5            1 RES     
    6888 C5         -78.3318   -81.7786   141.7343 C5            1 RES     
    6889 C5         -78.9246   -80.3202   142.0506 C5            1 RES     
    6890 C5         -78.7005   -79.6245   143.4619 C5            1 RES     
    6891 C5         -79.4920   -78.2346   143.9295 C5            1 RES     
    6892 C5         -79.1915   -76.6812   143.4494 C5            1 RES     
    6893 C5         -79.7249   -75.1690   144.1625 C5            1 RES     
    6894 C5         -81.1133   -74.1947   143.9799 C5            1 RES     
    6895 C5         -81.8593   -72.7145   144.6844 C5            1 RES     
    6896 C5         -81.8013   -70.9442   144.4903 C5            1 RES     
    6897 C5         -80.2790   -70.8572   143.8998 C5            1 RES     
    6898 C5         -79.0494   -71.4925   144.6957 C5            1 RES     
    6899 C5         -77.7576   -71.8241   143.8299 C5            1 RES     
    6900 C5         -76.4829   -72.2798   144.6385 C5            1 RES     
    6901 C5         -76.0989   -71.3291   145.7934 C5            1 RES     
    6902 C5         -75.9227   -69.8515   145.3671 C5            1 RES     
    6903 C5         -74.5006   -69.2861   145.4582 C5            1 RES     
    6904 C5         -73.4715   -70.0038   144.5917 C5            1 RES     
    6905 C5         -82.8027   -69.3275   145.0234 C5            1 RES     
    6906 C0         -83.9435   -68.4049   146.3192 C0            1 RES     
    6907 C5         -83.4044   -68.9974   147.6464 C5            1 RES     
    6908 C5         -83.0694   -70.5668   147.6476 C5            1 RES     
    6909 C5         -84.2959   -71.4508   147.9319 C5            1 RES     
    6910 C5         -85.5683   -71.1987   147.0906 C5            1 RES     
    6911 C5         -85.3812   -71.2226   145.5578 C5            1 RES     
    6912 C5         -86.6752   -71.3145   144.7598 C5            1 RES     
    6913 C5         -87.6677   -70.2122   145.1311 C5            1 RES     
    6914 C5         -89.0299   -70.4845   144.5015 C5            1 RES     
    6915 C5         -90.0681   -69.5699   145.1372 C5            1 RES     
    6916 C5         -91.4807   -69.9112   144.7215 C5            1 RES     
    6917 C5         -81.8555   -70.8874   148.5848 C5            1 RES     
    6918 C5         -81.0231   -72.2210   148.4608 C5            1 RES     
    6919 C5         -81.5494   -73.5948   148.9585 C5            1 RES     
    6920 C5         -82.0156   -73.5453   150.4192 C5            1 RES     
    6921 C5         -82.2455   -74.9390   151.0463 C5            1 RES     
    6922 C5         -83.0549   -74.8508   152.3590 C5            1 RES     
    6923 C5         -82.4563   -73.9581   153.4662 C5            1 RES     
    6924 C5         -81.1401   -74.4645   154.0851 C5            1 RES     
    6925 C5         -81.2379   -75.8314   154.7910 C5            1 RES     
    6926 C5         -82.2419   -75.8489   155.9472 C5            1 RES     
    6927 H6         -78.8093   -84.4364   140.6826 H6            1 RES     
    6928 H6         -77.4923   -84.5739   141.9061 H6            1 RES     
    6929 H6         -79.1270   -85.2252   142.2513 H6            1 RES     
    6930 H6         -80.1197   -82.9609   142.2112 H6            1 RES     
    6931 H6         -78.8287   -83.0498   143.4734 H6            1 RES     
    6932 H6         -77.2343   -81.8399   141.9122 H6            1 RES     
    6933 H6         -78.4750   -81.9363   140.6386 H6            1 RES     
    6934 H6         -80.0114   -80.3931   141.8515 H6            1 RES     
    6935 H6         -78.4703   -79.6464   141.2967 H6            1 RES     
    6936 H6         -77.5999   -79.5355   143.6215 H6            1 RES     
    6937 H6         -79.0268   -80.4192   144.1749 H6            1 RES     
    6938 H6         -79.2666   -78.2264   145.0190 H6            1 RES     
    6939 H6         -80.5675   -78.4541   143.8146 H6            1 RES     
    6940 H6         -78.0842   -76.6733   143.6081 H6            1 RES     
    6941 H6         -79.3081   -76.6473   142.3467 H6            1 RES     
    6942 H6         -78.8878   -74.5254   143.8208 H6            1 RES     
    6943 H6         -79.5291   -75.3482   145.2415 H6            1 RES     
    6944 H6         -81.1926   -74.0776   142.8795 H6            1 RES     
    6945 H6         -81.8538   -74.9700   144.2637 H6            1 RES     
    6946 H6         -81.7898   -72.9200   145.7569 H6            1 RES     
    6947 H6         -82.9035   -72.9181   144.4127 H6            1 RES     
    6948 H6         -82.2644   -70.9147   143.4786 H6            1 RES     
    6949 H6         -80.0189   -69.8533   143.5084 H6            1 RES     
    6950 H6         -80.2854   -71.5068   142.9849 H6            1 RES     
    6951 H6         -79.3165   -72.4603   145.1644 H6            1 RES     
    6952 H6         -78.7941   -70.7804   145.4957 H6            1 RES     
    6953 H6         -77.4839   -70.9558   143.2075 H6            1 RES     
    6954 H6         -77.9639   -72.6313   143.0889 H6            1 RES     
    6955 H6         -75.6108   -72.3843   143.9485 H6            1 RES     
    6956 H6         -76.6473   -73.2892   145.0820 H6            1 RES     
    6957 H6         -76.9331   -71.3901   146.5195 H6            1 RES     
    6958 H6         -75.2118   -71.6919   146.3622 H6            1 RES     
    6959 H6         -76.3204   -69.6564   144.3574 H6            1 RES     
    6960 H6         -76.5385   -69.2373   146.0568 H6            1 RES     
    6961 H6         -74.1628   -69.3088   146.5155 H6            1 RES     
    6962 H6         -74.5512   -68.2232   145.1328 H6            1 RES     
    6963 H6         -73.7769   -69.9990   143.5250 H6            1 RES     
    6964 H6         -72.4993   -69.4722   144.6859 H6            1 RES     
    6965 H6         -73.3297   -71.0483   144.9372 H6            1 RES     
    6966 H6         -83.4387   -69.2022   144.1174 H6            1 RES     
    6967 H6         -82.0365   -68.5533   144.8072 H6            1 RES     
    6968 H6         -82.4714   -68.4211   147.7969 H6            1 RES     
    6969 H6         -84.1028   -68.7591   148.4726 H6            1 RES     
    6970 H6         -82.6925   -70.8996   146.6986 H6            1 RES     
    6971 H6         -83.9962   -72.5028   147.7795 H6            1 RES     
    6972 H6         -84.5801   -71.3244   148.9937 H6            1 RES     
    6973 H6         -86.2858   -71.9968   147.3737 H6            1 RES     
    6974 H6         -85.9956   -70.2198   147.3934 H6            1 RES     
    6975 H6         -84.9480   -70.2955   145.2380 H6            1 RES     
    6976 H6         -84.7328   -72.0619   145.2593 H6            1 RES     
    6977 H6         -86.4449   -71.2527   143.6708 H6            1 RES     
    6978 H6         -87.1173   -72.3075   144.9740 H6            1 RES     
    6979 H6         -87.8193   -70.2411   146.2266 H6            1 RES     
    6980 H6         -87.2828   -69.2041   144.8537 H6            1 RES     
    6981 H6         -88.9917   -70.3479   143.3981 H6            1 RES     
    6982 H6         -89.3149   -71.5321   144.7328 H6            1 RES     
    6983 H6         -89.8540   -68.5410   144.8186 H6            1 RES     
    6984 H6         -90.0142   -69.6648   146.2480 H6            1 RES     
    6985 H6         -91.5967   -69.7602   143.6301 H6            1 RES     
    6986 H6         -92.1807   -69.2424   145.2668 H6            1 RES     
    6987 H6         -91.7066   -70.9636   144.9926 H6            1 RES     
    6988 H6         -82.1283   -70.6967   149.6381 H6            1 RES     
    6989 H6         -81.0906   -70.1320   148.2944 H6            1 RES     
    6990 H6         -80.6405   -72.3423   147.4298 H6            1 RES     
    6991 H6         -80.1094   -72.0453   149.0694 H6            1 RES     
    6992 H6         -82.3565   -73.9998   148.3132 H6            1 RES     
    6993 H6         -80.6947   -74.3102   148.8843 H6            1 RES     
    6994 H6         -82.9609   -72.9655   150.4289 H6            1 RES     
    6995 H6         -81.2517   -73.0244   151.0346 H6            1 RES     
    6996 H6         -81.2703   -75.4523   151.2124 H6            1 RES     
    6997 H6         -82.8399   -75.5708   150.3508 H6            1 RES     
    6998 H6         -83.2410   -75.8712   152.7557 H6            1 RES     
    6999 H6         -84.0468   -74.4245   152.0957 H6            1 RES     
    7000 H6         -83.2100   -73.8507   154.2727 H6            1 RES     
    7001 H6         -82.2949   -72.9359   153.0665 H6            1 RES     
    7002 H6         -80.3593   -74.5207   153.2976 H6            1 RES     
    7003 H6         -80.8054   -73.7129   154.8343 H6            1 RES     
    7004 H6         -81.5017   -76.6250   154.0623 H6            1 RES     
    7005 H6         -80.2353   -76.0743   155.2054 H6            1 RES     
    7006 H6         -81.9830   -75.0736   156.6995 H6            1 RES     
    7007 H6         -83.2758   -75.6781   155.5835 H6            1 RES     
    7008 H6         -82.2202   -76.8430   156.4412 H6            1 RES     
    7009 C0         -94.1882   -57.1022   150.4460 C0            1 RES     
    7010 C0         -94.7620   -58.8556   150.3132 C0            1 RES     
    7011 C0         -94.5620   -59.4853   151.5351 C0            1 RES     
    7012 S1         -94.7328   -61.1949   151.5392 S1            1 RES     
    7013 C0         -95.0987   -61.5376   149.9568 C0            1 RES     
    7014 C0         -95.1144   -60.0973   149.3695 C0            1 RES     
    7015 C0         -93.6927   -58.7113   152.4223 C0            1 RES     
    7016 C0         -93.1250   -57.8257   151.3250 C0            1 RES     
    7017 C0         -91.9502   -58.3229   150.8514 C0            1 RES     
    7018 C0         -91.4303   -59.4056   151.5567 C0            1 RES     
    7019 S1         -92.3702   -59.8534   152.9907 S1            1 RES     
    7020 H2         -95.2370   -60.0167   148.2961 H2            1 RES     
    7021 H2         -91.5385   -58.0610   149.8904 H2            1 RES     
    7022 N3         -94.7149   -65.4697   150.5445 N3            1 RES     
    7023 C0         -94.6861   -64.1303   150.6199 C0            1 RES     
    7024 C0         -95.2257   -63.1933   149.6185 C0            1 RES     
    7025 C0         -95.7937   -63.9879   148.5093 C0            1 RES     
    7026 N3         -96.3817   -63.4681   147.3855 N3            1 RES     
    7027 S1         -96.8537   -64.8157   146.5271 S1            1 RES     
    7028 N3         -96.3447   -66.0798   147.4614 N3            1 RES     
    7029 C0         -95.7871   -65.4527   148.5058 C0            1 RES     
    7030 C0         -95.2426   -66.1982   149.5226 C0            1 RES     
    7031 H4         -94.2071   -63.7705   151.5032 H4            1 RES     
    7032 C5         -94.5215   -39.7573   159.1213 C5            1 RES     
    7033 C5         -94.7240   -41.1445   158.4480 C5            1 RES     
    7034 C5         -94.1864   -41.2195   156.9812 C5            1 RES     
    7035 C5         -94.0496   -42.6617   156.2885 C5            1 RES     
    7036 C5         -95.3275   -43.4639   155.7892 C5            1 RES     
    7037 C5         -95.2699   -45.0540   155.2938 C5            1 RES     
    7038 C5         -94.7016   -45.6544   153.8620 C5            1 RES     
    7039 C5         -94.9440   -47.2351   153.1391 C5            1 RES     
    7040 C5         -94.1365   -48.7329   153.2608 C5            1 RES     
    7041 C5         -94.3001   -50.4355   152.6968 C5            1 RES     
    7042 C5         -93.8771   -51.4432   151.2895 C5            1 RES     
    7043 C5         -93.8603   -50.2418   150.1805 C5            1 RES     
    7044 C5         -95.1266   -49.2909   149.9772 C5            1 RES     
    7045 C5         -94.8364   -47.8819   149.2998 C5            1 RES     
    7046 C5         -96.1036   -47.0184   148.9327 C5            1 RES     
    7047 C5         -97.1636   -47.7788   148.1061 C5            1 RES     
    7048 C5         -96.6120   -48.4360   146.8177 C5            1 RES     
    7049 C5         -97.1170   -47.8544   145.4922 C5            1 RES     
    7050 C5         -96.7905   -46.3808   145.2760 C5            1 RES     
    7051 C5         -93.7714   -53.3441   150.7635 C5            1 RES     
    7052 C0         -94.4238   -55.1804   150.9477 C0            1 RES     
    7053 C5         -95.9285   -54.9229   151.2170 C5            1 RES     
    7054 C5         -96.2832   -53.7028   152.1973 C5            1 RES     
    7055 C5         -96.2418   -54.0867   153.6865 C5            1 RES     
    7056 C5         -94.9756   -54.8081   154.2030 C5            1 RES     
    7057 C5         -93.6314   -54.1047   153.9143 C5            1 RES     
    7058 C5         -92.4489   -54.6394   154.7116 C5            1 RES     
    7059 C5         -92.2741   -56.1499   154.5513 C5            1 RES     
    7060 C5         -91.2496   -56.6788   155.5499 C5            1 RES     
    7061 C5         -91.3306   -58.1987   155.5939 C5            1 RES     
    7062 C5         -90.4960   -58.7966   156.7032 C5            1 RES     
    7063 C5         -97.6273   -53.0132   151.7820 C5            1 RES     
    7064 C5         -98.0080   -51.5563   152.2504 C5            1 RES     
    7065 C5         -98.4855   -51.2302   153.6918 C5            1 RES     
    7066 C5         -99.6602   -52.1141   154.1301 C5            1 RES     
    7067 C5        -100.3653   -51.6201   155.4135 C5            1 RES     
    7068 C5        -101.2758   -52.7089   156.0231 C5            1 RES     
    7069 C5        -102.3767   -53.2686   155.0980 C5            1 RES     
    7070 C5        -103.4912   -52.2752   154.7197 C5            1 RES     
    7071 C5        -104.3121   -51.7367   155.9082 C5            1 RES     
    7072 C5        -105.0247   -52.8345   156.7030 C5            1 RES     
    7073 H6         -93.4435   -39.4823   159.1786 H6            1 RES     
    7074 H6         -95.0610   -38.9425   158.5931 H6            1 RES     
    7075 H6         -94.8959   -39.7746   160.1730 H6            1 RES     
    7076 H6         -94.1677   -41.8689   159.0787 H6            1 RES     
    7077 H6         -95.8044   -41.3918   158.4777 H6            1 RES     
    7078 H6         -94.7497   -40.4956   156.3499 H6            1 RES     
    7079 H6         -93.1480   -40.8171   157.0584 H6            1 RES     
    7080 H6         -93.4905   -43.2857   157.0125 H6            1 RES     
    7081 H6         -93.4147   -42.5012   155.3941 H6            1 RES     
    7082 H6         -95.8526   -42.8263   155.0393 H6            1 RES     
    7083 H6         -95.9881   -43.4456   156.6889 H6            1 RES     
    7084 H6         -96.3541   -45.3034   155.2772 H6            1 RES     
    7085 H6         -94.8144   -45.6084   156.1324 H6            1 RES     
    7086 H6         -95.2403   -44.9606   153.1694 H6            1 RES     
    7087 H6         -93.6376   -45.3524   153.7756 H6            1 RES     
    7088 H6         -94.8300   -46.9446   152.0741 H6            1 RES     
    7089 H6         -96.0359   -47.3825   153.2825 H6            1 RES     
    7090 H6         -93.0754   -48.4587   153.0877 H6            1 RES     
    7091 H6         -94.2510   -48.8530   154.3574 H6            1 RES     
    7092 H6         -95.3451   -50.6502   152.9401 H6            1 RES     
    7093 H6         -93.7088   -50.9212   153.4842 H6            1 RES     
    7094 H6         -92.7746   -51.4085   151.4385 H6            1 RES     
    7095 H6         -93.4415   -50.5551   149.2032 H6            1 RES     
    7096 H6         -93.1109   -49.5012   150.5668 H6            1 RES     
    7097 H6         -95.6087   -49.0335   150.9410 H6            1 RES     
    7098 H6         -95.8490   -49.8588   149.3708 H6            1 RES     
    7099 H6         -94.2296   -48.0159   148.3888 H6            1 RES     
    7100 H6         -94.2000   -47.2421   149.9547 H6            1 RES     
    7101 H6         -95.7925   -46.1040   148.3718 H6            1 RES     
    7102 H6         -96.6052   -46.6552   149.8596 H6            1 RES     
    7103 H6         -97.5462   -48.5759   148.7733 H6            1 RES     
    7104 H6         -98.0579   -47.1511   147.8861 H6            1 RES     
    7105 H6         -95.5099   -48.4618   146.7994 H6            1 RES     
    7106 H6         -96.9378   -49.4971   146.8276 H6            1 RES     
    7107 H6         -98.2160   -47.9957   145.4234 H6            1 RES     
    7108 H6         -96.6399   -48.4415   144.6762 H6            1 RES     
    7109 H6         -95.6970   -46.2026   145.3365 H6            1 RES     
    7110 H6         -97.1435   -46.0865   144.2632 H6            1 RES     
    7111 H6         -97.3157   -45.7503   146.0223 H6            1 RES     
    7112 H6         -92.6908   -53.5267   150.9628 H6            1 RES     
    7113 H6         -93.7286   -53.2303   149.6596 H6            1 RES     
    7114 H6         -96.3128   -54.7042   150.2022 H6            1 RES     
    7115 H6         -96.4070   -55.8528   151.5821 H6            1 RES     
    7116 H6         -95.5913   -52.8880   152.0940 H6            1 RES     
    7117 H6         -96.3649   -53.1615   154.2769 H6            1 RES     
    7118 H6         -97.1016   -54.7490   153.9015 H6            1 RES     
    7119 H6         -95.1011   -54.8978   155.3021 H6            1 RES     
    7120 H6         -94.9569   -55.8293   153.7679 H6            1 RES     
    7121 H6         -93.3517   -54.2774   152.8938 H6            1 RES     
    7122 H6         -93.7118   -53.0221   154.1028 H6            1 RES     
    7123 H6         -91.5167   -54.1228   154.3845 H6            1 RES     
    7124 H6         -92.6378   -54.3925   155.7749 H6            1 RES     
    7125 H6         -93.2353   -56.6357   154.8040 H6            1 RES     
    7126 H6         -92.0042   -56.4223   153.5052 H6            1 RES     
    7127 H6         -90.2247   -56.3355   155.2866 H6            1 RES     
    7128 H6         -91.5184   -56.2963   156.5567 H6            1 RES     
    7129 H6         -90.9589   -58.5858   154.6357 H6            1 RES     
    7130 H6         -92.3888   -58.5080   155.7677 H6            1 RES     
    7131 H6         -89.4252   -58.5722   156.5288 H6            1 RES     
    7132 H6         -90.6504   -59.8970   156.7075 H6            1 RES     
    7133 H6         -90.8232   -58.3853   157.6809 H6            1 RES     
    7134 H6         -98.4737   -53.7052   151.9397 H6            1 RES     
    7135 H6         -97.5183   -52.8614   150.6841 H6            1 RES     
    7136 H6         -97.2108   -50.8413   151.9726 H6            1 RES     
    7137 H6         -98.8680   -51.2653   151.6087 H6            1 RES     
    7138 H6         -97.6638   -51.2901   154.4355 H6            1 RES     
    7139 H6         -98.8277   -50.1668   153.6820 H6            1 RES     
    7140 H6         -99.2465   -53.1301   154.2930 H6            1 RES     
    7141 H6        -100.4217   -52.1461   153.3222 H6            1 RES     
    7142 H6        -100.9420   -50.6899   155.2025 H6            1 RES     
    7143 H6         -99.6068   -51.3730   156.1879 H6            1 RES     
    7144 H6        -101.7282   -52.3366   156.9664 H6            1 RES     
    7145 H6        -100.6166   -53.5601   156.2990 H6            1 RES     
    7146 H6        -102.8370   -54.1464   155.5955 H6            1 RES     
    7147 H6        -101.9125   -53.6580   154.1686 H6            1 RES     
    7148 H6        -103.0505   -51.4182   154.1683 H6            1 RES     
    7149 H6        -104.1892   -52.7952   154.0263 H6            1 RES     
    7150 H6        -103.6645   -51.1492   156.5908 H6            1 RES     
    7151 H6        -105.0870   -51.0494   155.5044 H6            1 RES     
    7152 H6        -105.6950   -53.4225   156.0403 H6            1 RES     
    7153 H6        -104.2961   -53.5162   157.1878 H6            1 RES     
    7154 H6        -105.6368   -52.3723   157.5058 H6            1 RES     
    7155 C0         -92.9014   -70.8323   149.3871 C0            1 RES     
    7156 C0         -92.8370   -70.0683   151.0703 C0            1 RES     
    7157 C0         -94.1296   -69.9805   151.5713 C0            1 RES     
    7158 S1         -94.3282   -69.0187   152.9810 S1            1 RES     
    7159 C0         -92.7893   -68.4737   153.2814 C0            1 RES     
    7160 C0         -92.0266   -69.1796   152.1240 C0            1 RES     
    7161 C0         -95.1414   -70.1996   150.5370 C0            1 RES     
    7162 C0         -94.1984   -69.9700   149.3671 C0            1 RES     
    7163 C0         -94.2532   -68.6796   148.9383 C0            1 RES     
    7164 C0         -95.2506   -67.8981   149.5167 C0            1 RES     
    7165 S1         -96.3067   -68.7819   150.6320 S1            1 RES     
    7166 H2         -90.9805   -68.9220   152.0095 H2            1 RES     
    7167 H2         -93.4737   -68.2123   148.3591 H2            1 RES     
    7168 N3         -94.0556   -65.9422   156.0994 N3            1 RES     
    7169 C0         -93.9352   -66.7962   155.0715 C0            1 RES     
    7170 C0         -92.6794   -67.3909   154.5803 C0            1 RES     
    7171 C0         -91.5729   -66.8716   155.4111 C0            1 RES     
    7172 N3         -90.2493   -67.1910   155.2531 N3            1 RES     
    7173 S1         -89.4909   -66.3485   156.4740 S1            1 RES     
    7174 N3         -90.7228   -65.5435   157.2253 N3            1 RES     
    7175 C0         -91.7909   -65.9404   156.5206 C0            1 RES     
    7176 C0         -93.0340   -65.4690   156.8649 C0            1 RES     
    7177 H4         -94.8667   -67.0190   154.6006 H4            1 RES     
    7178 C5         -98.1954   -85.1896   137.4682 C5            1 RES     
    7179 C5         -97.7094   -84.2055   138.5700 C5            1 RES     
    7180 C5         -96.5583   -83.2544   138.1049 C5            1 RES     
    7181 C5         -96.1834   -81.9965   139.0298 C5            1 RES     
    7182 C5         -95.3883   -82.1806   140.3937 C5            1 RES     
    7183 C5         -95.1894   -80.9556   141.5058 C5            1 RES     
    7184 C5         -94.1600   -79.6644   141.4250 C5            1 RES     
    7185 C5         -93.6430   -78.5671   142.6934 C5            1 RES     
    7186 C5         -94.2662   -77.1135   143.3327 C5            1 RES     
    7187 C5         -93.9421   -75.9434   144.6630 C5            1 RES     
    7188 C5         -92.9445   -74.5032   144.9876 C5            1 RES     
    7189 C5         -91.7477   -74.8452   143.9274 C5            1 RES     
    7190 C5         -90.9680   -76.2372   143.9865 C5            1 RES     
    7191 C5         -90.2355   -76.6813   142.6469 C5            1 RES     
    7192 C5         -89.3174   -77.9588   142.7531 C5            1 RES     
    7193 C5         -88.2916   -77.9008   143.9061 C5            1 RES     
    7194 C5         -87.3971   -76.6375   143.8966 C5            1 RES     
    7195 C5         -85.9076   -76.8655   143.6140 C5            1 RES     
    7196 C5         -85.6039   -77.4942   142.2585 C5            1 RES     
    7197 C5         -92.7808   -73.0378   146.3017 C5            1 RES     
    7198 C0         -92.9934   -72.3909   148.1369 C0            1 RES     
    7199 C5         -92.6685   -73.6806   148.9333 C5            1 RES     
    7200 C5         -93.2648   -75.0522   148.3514 C5            1 RES     
    7201 C5         -94.7108   -75.3258   148.7992 C5            1 RES     
    7202 C5         -95.7452   -74.1934   148.6038 C5            1 RES     
    7203 C5         -95.8515   -73.6135   147.1765 C5            1 RES     
    7204 C5         -97.0873   -72.7589   146.9269 C5            1 RES     
    7205 C5         -97.2273   -71.6265   147.9448 C5            1 RES     
    7206 C5         -98.5918   -70.9572   147.8161 C5            1 RES     
    7207 C5         -98.8308   -70.0685   149.0292 C5            1 RES     
    7208 C5        -100.2403   -69.5258   149.0876 C5            1 RES     
    7209 C5         -92.3007   -76.2548   148.6330 C5            1 RES     
    7210 C5         -92.3799   -77.6066   147.8249 C5            1 RES     
    7211 C5         -93.4914   -78.6661   148.0576 C5            1 RES     
    7212 C5         -93.6105   -79.0708   149.5326 C5            1 RES     
    7213 C5         -94.4702   -80.3341   149.7634 C5            1 RES     
    7214 C5         -94.8719   -80.4914   151.2466 C5            1 RES     
    7215 C5         -93.7106   -80.5522   152.2610 C5            1 RES     
    7216 C5         -92.8170   -81.8032   152.1697 C5            1 RES     
    7217 C5         -93.5414   -83.1390   152.4289 C5            1 RES     
    7218 C5         -94.1856   -83.2231   153.8155 C5            1 RES     
    7219 H6         -98.5902   -84.6475   136.5788 H6            1 RES     
    7220 H6         -97.3945   -85.8801   137.1278 H6            1 RES     
    7221 H6         -99.0353   -85.8191   137.8488 H6            1 RES     
    7222 H6         -98.5974   -83.5982   138.8436 H6            1 RES     
    7223 H6         -97.3898   -84.7986   139.4507 H6            1 RES     
    7224 H6         -95.6674   -83.8659   137.8362 H6            1 RES     
    7225 H6         -96.9384   -82.8270   137.1463 H6            1 RES     
    7226 H6         -97.1433   -81.4849   139.2366 H6            1 RES     
    7227 H6         -95.5597   -81.3369   138.3935 H6            1 RES     
    7228 H6         -94.4146   -82.6682   140.1517 H6            1 RES     
    7229 H6         -95.9810   -82.9727   140.9111 H6            1 RES     
    7230 H6         -94.8260   -81.5330   142.3847 H6            1 RES     
    7231 H6         -96.2079   -80.6006   141.7397 H6            1 RES     
    7232 H6         -93.2258   -80.2177   141.1559 H6            1 RES     
    7233 H6         -94.4133   -79.0963   140.5063 H6            1 RES     
    7234 H6         -92.6574   -78.2834   142.2694 H6            1 RES     
    7235 H6         -93.4094   -79.2728   143.5192 H6            1 RES     
    7236 H6         -94.4426   -76.4981   142.4264 H6            1 RES     
    7237 H6         -95.2552   -77.5168   143.6312 H6            1 RES     
    7238 H6         -93.8272   -76.6110   145.5224 H6            1 RES     
    7239 H6         -94.9513   -75.5202   144.7518 H6            1 RES     
    7240 H6         -93.4687   -73.8259   144.2765 H6            1 RES     
    7241 H6         -91.0416   -74.0037   143.7791 H6            1 RES     
    7242 H6         -92.2597   -74.9420   142.9335 H6            1 RES     
    7243 H6         -91.6474   -77.0817   144.2161 H6            1 RES     
    7244 H6         -90.2365   -76.1505   144.8049 H6            1 RES     
    7245 H6         -89.6306   -75.8488   142.2505 H6            1 RES     
    7246 H6         -90.9703   -76.8899   141.8347 H6            1 RES     
    7247 H6         -88.7737   -78.1187   141.7906 H6            1 RES     
    7248 H6         -89.9400   -78.8700   142.9101 H6            1 RES     
    7249 H6         -88.8903   -77.9026   144.8380 H6            1 RES     
    7250 H6         -87.6769   -78.8281   143.9719 H6            1 RES     
    7251 H6         -87.7757   -75.8611   143.2114 H6            1 RES     
    7252 H6         -87.4489   -76.1934   144.9127 H6            1 RES     
    7253 H6         -85.4747   -77.5023   144.4138 H6            1 RES     
    7254 H6         -85.4119   -75.8701   143.6566 H6            1 RES     
    7255 H6         -86.0217   -76.8815   141.4333 H6            1 RES     
    7256 H6         -84.5000   -77.5511   142.1358 H6            1 RES     
    7257 H6         -86.0116   -78.5244   142.2052 H6            1 RES     
    7258 H6         -93.3761   -72.2566   145.7760 H6            1 RES     
    7259 H6         -91.7605   -72.6767   146.0528 H6            1 RES     
    7260 H6         -91.5630   -73.7104   148.8878 H6            1 RES     
    7261 H6         -92.9744   -73.5536   149.9904 H6            1 RES     
    7262 H6         -93.2936   -75.0562   147.2779 H6            1 RES     
    7263 H6         -95.0736   -76.2103   148.2462 H6            1 RES     
    7264 H6         -94.7026   -75.5737   149.8775 H6            1 RES     
    7265 H6         -96.7282   -74.6244   148.8866 H6            1 RES     
    7266 H6         -95.5030   -73.3764   149.3154 H6            1 RES     
    7267 H6         -95.0351   -72.9401   147.0047 H6            1 RES     
    7268 H6         -95.8350   -74.4213   146.4274 H6            1 RES     
    7269 H6         -97.0395   -72.3285   145.8996 H6            1 RES     
    7270 H6         -97.9644   -73.4327   146.9897 H6            1 RES     
    7271 H6         -97.1915   -72.0690   148.9580 H6            1 RES     
    7272 H6         -96.3986   -70.8875   147.8519 H6            1 RES     
    7273 H6         -98.6618   -70.3773   146.8693 H6            1 RES     
    7274 H6         -99.3681   -71.7507   147.8197 H6            1 RES     
    7275 H6         -98.1366   -69.2195   148.9694 H6            1 RES     
    7276 H6         -98.6612   -70.6599   149.9604 H6            1 RES     
    7277 H6        -100.4264   -68.8719   148.2129 H6            1 RES     
    7278 H6        -100.3538   -68.9377   150.0235 H6            1 RES     
    7279 H6        -100.9647   -70.3667   149.1030 H6            1 RES     
    7280 H6         -92.2488   -76.4538   149.7183 H6            1 RES     
    7281 H6         -91.3038   -75.8747   148.3137 H6            1 RES     
    7282 H6         -92.3001   -77.4118   146.7387 H6            1 RES     
    7283 H6         -91.4387   -78.1437   148.0733 H6            1 RES     
    7284 H6         -94.4786   -78.3384   147.6703 H6            1 RES     
    7285 H6         -93.2018   -79.5682   147.4658 H6            1 RES     
    7286 H6         -94.0596   -78.2057   150.0615 H6            1 RES     
    7287 H6         -92.5992   -79.2757   149.9435 H6            1 RES     
    7288 H6         -93.9316   -81.2388   149.3977 H6            1 RES     
    7289 H6         -95.4174   -80.2549   149.1866 H6            1 RES     
    7290 H6         -95.5258   -81.3808   151.3673 H6            1 RES     
    7291 H6         -95.4879   -79.6040   151.5076 H6            1 RES     
    7292 H6         -94.1373   -80.4940   153.2830 H6            1 RES     
    7293 H6         -93.0763   -79.6491   152.1475 H6            1 RES     
    7294 H6         -92.3368   -81.8418   151.1694 H6            1 RES     
    7295 H6         -92.0069   -81.6983   152.9254 H6            1 RES     
    7296 H6         -94.3136   -83.3171   151.6527 H6            1 RES     
    7297 H6         -92.7907   -83.9553   152.3507 H6            1 RES     
    7298 H6         -93.4238   -83.0676   154.6090 H6            1 RES     
    7299 H6         -94.9937   -82.4718   153.9288 H6            1 RES     
    7300 H6         -94.6398   -84.2271   153.9525 H6            1 RES     
    7301 C0         -94.4336   -60.8915   158.8806 C0            1 RES     
    7302 C0         -95.8955   -61.9456   158.4643 C0            1 RES     
    7303 C0         -95.8852   -63.0678   159.2830 C0            1 RES     
    7304 S1         -96.9716   -64.3265   158.8505 S1            1 RES     
    7305 C0         -97.7143   -63.7288   157.4917 C0            1 RES     
    7306 C0         -97.0229   -62.3383   157.4006 C0            1 RES     
    7307 C0         -94.6040   -63.2428   159.9682 C0            1 RES     
    7308 C0         -93.8254   -62.3156   159.0491 C0            1 RES     
    7309 C0         -93.2174   -63.0115   158.0501 C0            1 RES     
    7310 C0         -93.2798   -64.3983   158.1623 C0            1 RES     
    7311 S1         -94.0657   -64.9697   159.6444 S1            1 RES     
    7312 H2         -97.2505   -61.7442   156.5237 H2            1 RES     
    7313 H2         -92.8902   -62.5621   157.1268 H2            1 RES     
    7314 N3         -99.4860   -67.2239   156.7183 N3            1 RES     
    7315 C0         -98.7080   -66.2263   157.1653 C0            1 RES     
    7316 C0         -98.7900   -64.8126   156.7569 C0            1 RES     
    7317 C0         -99.8722   -64.6881   155.7581 C0            1 RES     
    7318 N3        -100.2446   -63.5238   155.1378 N3            1 RES     
    7319 S1        -101.5146   -63.9841   154.1629 S1            1 RES     
    7320 N3        -101.6497   -65.6093   154.4279 N3            1 RES     
    7321 C0        -100.6792   -65.8311   155.3246 C0            1 RES     
    7322 C0        -100.4847   -67.1044   155.8007 C0            1 RES     
    7323 H4         -97.9757   -66.5501   157.8711 H4            1 RES     
    7324 C5         -83.7005   -51.0822   171.7177 C5            1 RES     
    7325 C5         -84.7427   -51.7746   170.7942 C5            1 RES     
    7326 C5         -84.5805   -51.4186   169.2800 C5            1 RES     
    7327 C5         -85.3792   -52.2951   168.1973 C5            1 RES     
    7328 C5         -86.9477   -52.1340   167.9974 C5            1 RES     
    7329 C5         -87.8615   -53.1786   167.0749 C5            1 RES     
    7330 C5         -87.9597   -53.2611   165.4265 C5            1 RES     
    7331 C5         -89.1498   -54.0647   164.4175 C5            1 RES     
    7332 C5         -89.3009   -55.6427   163.7874 C5            1 RES     
    7333 C5         -90.4688   -56.6467   162.8536 C5            1 RES     
    7334 C5         -90.9076   -56.9935   161.1618 C5            1 RES     
    7335 C5         -90.4058   -55.5717   160.5292 C5            1 RES     
    7336 C5         -90.9455   -54.1810   161.0981 C5            1 RES     
    7337 C5         -90.0361   -52.9099   160.8050 C5            1 RES     
    7338 C5         -90.6513   -51.5141   161.2043 C5            1 RES     
    7339 C5         -92.0711   -51.2712   160.6473 C5            1 RES     
    7340 C5         -92.1915   -51.4543   159.1149 C5            1 RES     
    7341 C5         -92.4942   -50.1889   158.3042 C5            1 RES     
    7342 C5         -91.4453   -49.0885   158.4229 C5            1 RES     
    7343 C5         -91.9592   -58.2878   160.1036 C5            1 RES     
    7344 C0         -93.4803   -59.5127   159.9717 C0            1 RES     
    7345 C5         -94.5234   -58.7671   160.8430 C5            1 RES     
    7346 C5         -93.9795   -58.0953   162.1952 C5            1 RES     
    7347 C5         -93.9197   -59.0746   163.3801 C5            1 RES     
    7348 C5         -93.2026   -60.4256   163.1544 C5            1 RES     
    7349 C5         -91.7612   -60.3428   162.6063 C5            1 RES     
    7350 C5         -90.9639   -61.6361   162.7136 C5            1 RES     
    7351 C5         -91.6841   -62.8194   162.0661 C5            1 RES     
    7352 C5         -90.9804   -64.1278   162.4112 C5            1 RES     
    7353 C5         -91.8819   -65.2961   162.0361 C5            1 RES     
    7354 C5         -91.3538   -66.6238   162.5291 C5            1 RES     
    7355 C5         -94.7617   -56.7796   162.5298 C5            1 RES     
    7356 C5         -94.1900   -55.6842   163.5096 C5            1 RES     
    7357 C5         -94.1680   -55.8597   165.0526 C5            1 RES     
    7358 C5         -95.5471   -56.2247   165.6169 C5            1 RES     
    7359 C5         -95.6434   -56.0987   167.1541 C5            1 RES     
    7360 C5         -96.8927   -56.8161   167.7113 C5            1 RES     
    7361 C5         -98.2504   -56.3548   167.1413 C5            1 RES     
    7362 C5         -98.6707   -54.9203   167.5120 C5            1 RES     
    7363 C5         -98.8521   -54.6663   169.0216 C5            1 RES     
    7364 C5         -99.9151   -55.5604   169.6660 C5            1 RES     
    7365 H6         -82.6584   -51.3694   171.4483 H6            1 RES     
    7366 H6         -83.7741   -49.9742   171.6907 H6            1 RES     
    7367 H6         -83.8472   -51.3978   172.7786 H6            1 RES     
    7368 H6         -84.5888   -52.8652   170.9319 H6            1 RES     
    7369 H6         -85.7575   -51.5034   171.1494 H6            1 RES     
    7370 H6         -84.7406   -50.3250   169.1442 H6            1 RES     
    7371 H6         -83.4970   -51.5979   169.0800 H6            1 RES     
    7372 H6         -85.1524   -53.3501   168.4455 H6            1 RES     
    7373 H6         -84.9151   -52.0529   167.2202 H6            1 RES     
    7374 H6         -87.1433   -51.0719   167.7178 H6            1 RES     
    7375 H6         -87.3328   -52.2279   169.0410 H6            1 RES     
    7376 H6         -88.8878   -52.8867   167.3899 H6            1 RES     
    7377 H6         -87.6623   -54.1845   167.4828 H6            1 RES     
    7378 H6         -88.1262   -52.1746   165.2189 H6            1 RES     
    7379 H6         -86.9372   -53.4572   165.0435 H6            1 RES     
    7380 H6         -89.0665   -53.4153   163.5215 H6            1 RES     
    7381 H6         -90.1003   -53.7611   164.9064 H6            1 RES     
    7382 H6         -88.3101   -55.8207   163.3209 H6            1 RES     
    7383 H6         -89.2852   -56.1731   164.7613 H6            1 RES     
    7384 H6         -91.4023   -56.4607   163.3933 H6            1 RES     
    7385 H6         -90.1288   -57.6364   163.1860 H6            1 RES     
    7386 H6         -89.9640   -57.5196   160.8939 H6            1 RES     
    7387 H6         -90.3941   -55.5664   159.4208 H6            1 RES     
    7388 H6         -89.3212   -55.4971   160.8077 H6            1 RES     
    7389 H6         -91.0420   -54.1958   162.2017 H6            1 RES     
    7390 H6         -91.9476   -54.0349   160.6660 H6            1 RES     
    7391 H6         -89.7609   -52.8774   159.7376 H6            1 RES     
    7392 H6         -89.0567   -52.9834   161.3328 H6            1 RES     
    7393 H6         -89.9803   -50.6895   160.8616 H6            1 RES     
    7394 H6         -90.7111   -51.4215   162.3136 H6            1 RES     
    7395 H6         -92.7185   -52.0200   161.1444 H6            1 RES     
    7396 H6         -92.4889   -50.2892   160.9688 H6            1 RES     
    7397 H6         -91.3086   -51.9531   158.6819 H6            1 RES     
    7398 H6         -93.0441   -52.1418   158.9345 H6            1 RES     
    7399 H6         -93.4811   -49.7831   158.6104 H6            1 RES     
    7400 H6         -92.5608   -50.4945   157.2362 H6            1 RES     
    7401 H6         -90.4438   -49.4595   158.1222 H6            1 RES     
    7402 H6         -91.7329   -48.2532   157.7474 H6            1 RES     
    7403 H6         -91.4052   -48.6969   159.4599 H6            1 RES     
    7404 H6         -91.1459   -58.9960   159.8246 H6            1 RES     
    7405 H6         -92.0382   -57.7274   159.1481 H6            1 RES     
    7406 H6         -94.8788   -57.9759   160.1553 H6            1 RES     
    7407 H6         -95.3710   -59.4428   161.0708 H6            1 RES     
    7408 H6         -92.9794   -57.7200   162.0853 H6            1 RES     
    7409 H6         -93.4127   -58.5616   164.2165 H6            1 RES     
    7410 H6         -94.9545   -59.3066   163.6954 H6            1 RES     
    7411 H6         -93.1785   -60.9286   164.1434 H6            1 RES     
    7412 H6         -93.8231   -61.0364   162.4656 H6            1 RES     
    7413 H6         -91.7921   -60.1474   161.5526 H6            1 RES     
    7414 H6         -91.1966   -59.5473   163.1185 H6            1 RES     
    7415 H6         -89.9687   -61.4998   162.2301 H6            1 RES     
    7416 H6         -90.8109   -61.8329   163.7930 H6            1 RES     
    7417 H6         -92.6979   -62.8858   162.5039 H6            1 RES     
    7418 H6         -91.7824   -62.6858   160.9643 H6            1 RES     
    7419 H6         -89.9953   -64.1959   161.8989 H6            1 RES     
    7420 H6         -90.8264   -64.1585   163.5101 H6            1 RES     
    7421 H6         -91.9466   -65.3362   160.9405 H6            1 RES     
    7422 H6         -92.8898   -65.1470   162.4918 H6            1 RES     
    7423 H6         -90.3829   -66.8443   162.0433 H6            1 RES     
    7424 H6         -92.0891   -67.4151   162.2687 H6            1 RES     
    7425 H6         -91.2363   -66.5933   163.6324 H6            1 RES     
    7426 H6         -95.8113   -57.0152   162.7809 H6            1 RES     
    7427 H6         -94.7646   -56.2215   161.5660 H6            1 RES     
    7428 H6         -93.1871   -55.3556   163.1776 H6            1 RES     
    7429 H6         -94.8340   -54.7924   163.3484 H6            1 RES     
    7430 H6         -93.4108   -56.5999   165.3853 H6            1 RES     
    7431 H6         -93.8597   -54.8755   165.4817 H6            1 RES     
    7432 H6         -95.7463   -57.2716   165.3099 H6            1 RES     
    7433 H6         -96.3163   -55.5542   165.1782 H6            1 RES     
    7434 H6         -95.6326   -55.0253   167.4541 H6            1 RES     
    7435 H6         -94.7627   -56.5853   167.6272 H6            1 RES     
    7436 H6         -96.9045   -56.7454   168.8195 H6            1 RES     
    7437 H6         -96.7819   -57.8932   167.4611 H6            1 RES     
    7438 H6         -99.0331   -57.0568   167.4942 H6            1 RES     
    7439 H6         -98.2362   -56.4503   166.0361 H6            1 RES     
    7440 H6         -97.9242   -54.2019   167.1128 H6            1 RES     
    7441 H6         -99.6402   -54.7091   167.0082 H6            1 RES     
    7442 H6         -97.8881   -54.7978   169.5544 H6            1 RES     
    7443 H6         -99.1688   -53.6089   169.1543 H6            1 RES     
    7444 H6        -100.8948   -55.4281   169.1591 H6            1 RES     
    7445 H6         -99.6201   -56.6289   169.6236 H6            1 RES     
    7446 H6        -100.0301   -55.2867   170.7359 H6            1 RES     
    7447 C0        -101.1630   -71.6899   153.4579 C0            1 RES     
    7448 C0        -100.4169   -71.8710   155.1408 C0            1 RES     
    7449 C0        -101.3437   -71.4543   156.0880 C0            1 RES     
    7450 S1        -100.7466   -71.2436   157.6851 S1            1 RES     
    7451 C0         -99.1395   -71.6321   157.5376 C0            1 RES     
    7452 C0         -99.0935   -72.0047   156.0281 C0            1 RES     
    7453 C0        -102.4574   -70.7185   155.4881 C0            1 RES     
    7454 C0        -101.7475   -70.4361   154.1739 C0            1 RES     
    7455 C0        -101.1458   -69.2156   154.1934 C0            1 RES     
    7456 C0        -101.4344   -68.4232   155.3018 C0            1 RES     
    7457 S1        -102.6080   -69.1412   156.4188 S1            1 RES     
    7458 H2         -98.1147   -72.2150   155.6140 H2            1 RES     
    7459 H2        -100.3430   -68.9383   153.5300 H2            1 RES     
    7460 N3         -98.3186   -70.3523   161.2311 N3            1 RES     
    7461 C0         -98.8585   -70.6142   160.0310 C0            1 RES     
    7462 C0         -98.2413   -71.4140   158.9579 C0            1 RES     
    7463 C0         -96.9165   -71.8672   159.4310 C0            1 RES     
    7464 N3         -96.0378   -72.6305   158.7069 N3            1 RES     
    7465 S1         -94.7557   -72.8514   159.7474 S1            1 RES     
    7466 N3         -95.1951   -72.0139   161.1022 N3            1 RES     
    7467 C0         -96.4004   -71.5383   160.7618 C0            1 RES     
    7468 C0         -97.0992   -70.7749   161.6646 C0            1 RES     
    7469 H4         -99.8184   -70.1671   159.8967 H4            1 RES     
    7470 C5        -115.3562   -75.2438   140.7247 C5            1 RES     
    7471 C5        -114.2372   -75.1812   141.8028 C5            1 RES     
    7472 C5        -112.8445   -74.7416   141.2433 C5            1 RES     
    7473 C5        -111.6927   -74.3380   142.2867 C5            1 RES     
    7474 C5        -110.9267   -75.4388   143.1397 C5            1 RES     
    7475 C5        -109.9068   -75.0662   144.4039 C5            1 RES     
    7476 C5        -108.3633   -74.4786   144.3276 C5            1 RES     
    7477 C5        -107.1295   -74.4154   145.5741 C5            1 RES     
    7478 C5        -106.7302   -73.2915   146.7937 C5            1 RES     
    7479 C5        -105.6036   -73.1140   148.1877 C5            1 RES     
    7480 C5        -103.9385   -72.5764   148.5241 C5            1 RES     
    7481 C5        -103.3206   -72.9003   147.0453 C5            1 RES     
    7482 C5        -103.4458   -74.3558   146.4012 C5            1 RES     
    7483 C5        -103.3086   -74.4300   144.8188 C5            1 RES     
    7484 C5        -103.2498   -75.8783   144.1982 C5            1 RES     
    7485 C5        -102.1950   -76.7986   144.8504 C5            1 RES     
    7486 C5        -100.7657   -76.2050   144.8790 C5            1 RES     
    7487 C5         -99.7209   -76.9149   144.0102 C5            1 RES     
    7488 C5        -100.0388   -76.9366   142.5191 C5            1 RES     
    7489 C5        -102.7818   -72.0907   150.0496 C5            1 RES     
    7490 C0        -102.3025   -72.3083   151.9349 C0            1 RES     
    7491 C5        -102.6243   -73.8109   152.1394 C5            1 RES     
    7492 C5        -103.9649   -74.3579   151.4472 C5            1 RES     
    7493 C5        -105.2258   -74.1315   152.2989 C5            1 RES     
    7494 C5        -105.4743   -72.7053   152.8417 C5            1 RES     
    7495 C5        -105.4685   -71.5720   151.7926 C5            1 RES     
    7496 C5        -106.0441   -70.2492   152.2812 C5            1 RES     
    7497 C5        -105.3675   -69.7572   153.5612 C5            1 RES     
    7498 C5        -106.1316   -68.5758   154.1500 C5            1 RES     
    7499 C5        -105.6397   -68.3167   155.5675 C5            1 RES     
    7500 C5        -106.4807   -67.2973   156.3010 C5            1 RES     
    7501 C5        -103.7989   -75.8460   150.9860 C5            1 RES     
    7502 C5        -104.7425   -76.5055   149.9083 C5            1 RES     
    7503 C5        -106.2002   -76.9437   150.2166 C5            1 RES     
    7504 C5        -106.2853   -77.8621   151.4425 C5            1 RES     
    7505 C5        -107.6507   -78.5696   151.5961 C5            1 RES     
    7506 C5        -107.8280   -79.1740   153.0065 C5            1 RES     
    7507 C5        -106.7506   -80.1851   153.4515 C5            1 RES     
    7508 C5        -106.7288   -81.5141   152.6737 C5            1 RES     
    7509 C5        -108.0194   -82.3505   152.7808 C5            1 RES     
    7510 C5        -108.3698   -82.7478   154.2175 C5            1 RES     
    7511 H6        -115.5209   -74.2516   140.2457 H6            1 RES     
    7512 H6        -115.1395   -75.9843   139.9255 H6            1 RES     
    7513 H6        -116.3301   -75.5326   141.1880 H6            1 RES     
    7514 H6        -114.5819   -74.4373   142.5511 H6            1 RES     
    7515 H6        -114.1637   -76.1760   142.2869 H6            1 RES     
    7516 H6        -112.4989   -75.4923   140.4969 H6            1 RES     
    7517 H6        -113.0718   -73.8146   140.6644 H6            1 RES     
    7518 H6        -112.1599   -73.6072   142.9749 H6            1 RES     
    7519 H6        -110.9198   -73.8165   141.6871 H6            1 RES     
    7520 H6        -110.4405   -76.1413   142.4224 H6            1 RES     
    7521 H6        -111.7668   -76.0242   143.5844 H6            1 RES     
    7522 H6        -109.7891   -76.0673   144.8748 H6            1 RES     
    7523 H6        -110.5044   -74.4437   145.0920 H6            1 RES     
    7524 H6        -107.9502   -75.2028   143.5819 H6            1 RES     
    7525 H6        -108.4026   -73.5157   143.7780 H6            1 RES     
    7526 H6        -106.2353   -74.4412   144.9174 H6            1 RES     
    7527 H6        -107.1974   -75.4357   146.0090 H6            1 RES     
    7528 H6        -106.6785   -72.3312   146.2403 H6            1 RES     
    7529 H6        -107.7136   -73.3016   147.3062 H6            1 RES     
    7530 H6        -105.7420   -74.0670   148.7073 H6            1 RES     
    7531 H6        -106.1790   -72.3779   148.7643 H6            1 RES     
    7532 H6        -104.1052   -71.5010   148.2899 H6            1 RES     
    7533 H6        -102.3012   -72.4905   146.8983 H6            1 RES     
    7534 H6        -103.9519   -72.3079   146.3312 H6            1 RES     
    7535 H6        -104.4321   -74.8160   146.6091 H6            1 RES     
    7536 H6        -102.6692   -74.9750   146.8761 H6            1 RES     
    7537 H6        -102.4167   -73.8722   144.4880 H6            1 RES     
    7538 H6        -104.1547   -73.9071   144.3149 H6            1 RES     
    7539 H6        -103.0488   -75.8154   143.1013 H6            1 RES     
    7540 H6        -104.2383   -76.3833   144.3015 H6            1 RES     
    7541 H6        -102.5355   -76.9499   145.8935 H6            1 RES     
    7542 H6        -102.1964   -77.8221   144.4092 H6            1 RES     
    7543 H6        -100.7545   -75.1281   144.6425 H6            1 RES     
    7544 H6        -100.3990   -76.2875   145.9235 H6            1 RES     
    7545 H6         -99.5921   -77.9578   144.3682 H6            1 RES     
    7546 H6         -98.7575   -76.3770   144.1544 H6            1 RES     
    7547 H6        -100.1727   -75.9077   142.1259 H6            1 RES     
    7548 H6         -99.1884   -77.4139   141.9844 H6            1 RES     
    7549 H6        -100.9513   -77.5357   142.3225 H6            1 RES     
    7550 H6        -102.9192   -70.9853   150.0356 H6            1 RES     
    7551 H6        -101.7883   -72.1493   149.5568 H6            1 RES     
    7552 H6        -101.7452   -74.3022   151.6800 H6            1 RES     
    7553 H6        -102.6342   -74.0466   153.2217 H6            1 RES     
    7554 H6        -104.1628   -73.8712   150.5106 H6            1 RES     
    7555 H6        -106.1010   -74.4148   151.6879 H6            1 RES     
    7556 H6        -105.1835   -74.8075   153.1737 H6            1 RES     
    7557 H6        -106.4706   -72.7327   153.3300 H6            1 RES     
    7558 H6        -104.7094   -72.4918   153.6176 H6            1 RES     
    7559 H6        -104.4560   -71.3313   151.5348 H6            1 RES     
    7560 H6        -106.0229   -71.8759   150.8903 H6            1 RES     
    7561 H6        -105.9313   -69.4782   151.4839 H6            1 RES     
    7562 H6        -107.1239   -70.4149   152.4654 H6            1 RES     
    7563 H6        -105.4211   -70.5683   154.3116 H6            1 RES     
    7564 H6        -104.2961   -69.5060   153.3875 H6            1 RES     
    7565 H6        -106.0192   -67.6721   153.5110 H6            1 RES     
    7566 H6        -107.2049   -68.8529   154.2096 H6            1 RES     
    7567 H6        -104.6118   -67.9351   155.5051 H6            1 RES     
    7568 H6        -105.6797   -69.2665   156.1524 H6            1 RES     
    7569 H6        -106.4105   -66.3167   155.7903 H6            1 RES     
    7570 H6        -106.0974   -67.2048   157.3398 H6            1 RES     
    7571 H6        -107.5360   -67.6396   156.3379 H6            1 RES     
    7572 H6        -103.6928   -76.5064   151.8651 H6            1 RES     
    7573 H6        -102.8253   -75.8482   150.4454 H6            1 RES     
    7574 H6        -104.7435   -75.9062   148.9783 H6            1 RES     
    7575 H6        -104.2317   -77.4502   149.6208 H6            1 RES     
    7576 H6        -106.8870   -76.0802   150.3376 H6            1 RES     
    7577 H6        -106.5587   -77.5116   149.3239 H6            1 RES     
    7578 H6        -106.0878   -77.2246   152.3282 H6            1 RES     
    7579 H6        -105.5070   -78.6511   151.3692 H6            1 RES     
    7580 H6        -107.7709   -79.3500   150.8095 H6            1 RES     
    7581 H6        -108.4729   -77.8331   151.4626 H6            1 RES     
    7582 H6        -108.8358   -79.6319   153.0958 H6            1 RES     
    7583 H6        -107.7975   -78.3263   153.7245 H6            1 RES     
    7584 H6        -106.9029   -80.4056   154.5277 H6            1 RES     
    7585 H6        -105.7501   -79.7109   153.3798 H6            1 RES     
    7586 H6        -106.5185   -81.3117   151.6025 H6            1 RES     
    7587 H6        -105.8879   -82.1260   153.0695 H6            1 RES     
    7588 H6        -108.8732   -81.8032   152.3315 H6            1 RES     
    7589 H6        -107.8712   -83.2835   152.1947 H6            1 RES     
    7590 H6        -107.5341   -83.3157   154.6794 H6            1 RES     
    7591 H6        -108.5951   -81.8557   154.8370 H6            1 RES     
    7592 H6        -109.2752   -83.3905   154.2136 H6            1 RES     
    7593 C0         -95.3818   -67.4852   165.2982 C0            1 RES     
    7594 C0         -97.2267   -67.4760   165.1663 C0            1 RES     
    7595 C0         -97.7091   -68.7190   165.5561 C0            1 RES     
    7596 S1         -99.3635   -69.0280   165.2106 S1            1 RES     
    7597 C0         -99.8566   -67.6301   164.4634 C0            1 RES     
    7598 C0         -98.5358   -66.8114   164.5327 C0            1 RES     
    7599 C0         -96.6498   -69.7258   165.6331 C0            1 RES     
    7600 C0         -95.6473   -68.9386   164.8048 C0            1 RES     
    7601 C0         -95.6967   -69.3054   163.4953 C0            1 RES     
    7602 C0         -96.4984   -70.4086   163.2122 C0            1 RES     
    7603 S1         -97.2193   -71.1655   164.6432 S1            1 RES     
    7604 H2         -98.5330   -65.8581   164.0180 H2            1 RES     
    7605 H2         -95.3285   -68.6894   162.6913 H2            1 RES     
    7606 N3        -103.3650   -69.2279   163.4186 N3            1 RES     
    7607 C0        -102.1049   -68.9927   163.8151 C0            1 RES     
    7608 C0        -101.4537   -67.6732   163.8986 C0            1 RES     
    7609 C0        -102.4288   -66.6543   163.4566 C0            1 RES     
    7610 N3        -102.1870   -65.3067   163.3884 N3            1 RES     
    7611 S1        -103.6358   -64.6712   162.8663 S1            1 RES     
    7612 N3        -104.6045   -65.9960   162.6752 N3            1 RES     
    7613 C0        -103.7910   -66.9959   163.0403 C0            1 RES     
    7614 C0        -104.2616   -68.2859   163.0156 C0            1 RES     
    7615 H4        -101.5731   -69.8821   164.0706 H4            1 RES     
    7616 C5         -79.1198   -70.2861   175.4922 C5            1 RES     
    7617 C5         -80.5030   -69.9550   174.8631 C5            1 RES     
    7618 C5         -80.4159   -69.0761   173.5723 C5            1 RES     
    7619 C5         -81.7277   -68.9253   172.6586 C5            1 RES     
    7620 C5         -82.9516   -68.0182   173.1120 C5            1 RES     
    7621 C5         -84.4248   -68.0186   172.3330 C5            1 RES     
    7622 C5         -84.8151   -67.3069   170.8927 C5            1 RES     
    7623 C5         -86.3943   -66.9592   170.2106 C5            1 RES     
    7624 C5         -87.4935   -67.8422   169.2503 C5            1 RES     
    7625 C5         -89.1536   -67.6939   168.5676 C5            1 RES     
    7626 C5         -89.9755   -67.0184   167.1383 C5            1 RES     
    7627 C5         -88.8790   -65.8508   166.8098 C5            1 RES     
    7628 C5         -88.4577   -64.7814   167.9179 C5            1 RES     
    7629 C5         -87.0575   -64.0621   167.6932 C5            1 RES     
    7630 C5         -86.7222   -62.8801   168.6814 C5            1 RES     
    7631 C5         -87.8364   -61.8161   168.7887 C5            1 RES     
    7632 C5         -88.2820   -61.2246   167.4294 C5            1 RES     
    7633 C5         -87.9578   -59.7443   167.1970 C5            1 RES     
    7634 C5         -86.4723   -59.4028   167.2336 C5            1 RES     
    7635 C5         -91.7215   -67.0923   166.2180 C5            1 RES     
    7636 C0         -93.6640   -67.3165   166.3087 C0            1 RES     
    7637 C5         -93.9628   -66.6620   167.6818 C5            1 RES     
    7638 C5         -92.9294   -66.9797   168.8679 C5            1 RES     
    7639 C5         -93.2334   -68.2959   169.6038 C5            1 RES     
    7640 C5         -93.4327   -69.5653   168.7438 C5            1 RES     
    7641 C5         -92.2975   -69.8937   167.7497 C5            1 RES     
    7642 C5         -92.3460   -71.3015   167.1704 C5            1 RES     
    7643 C5         -93.6939   -71.6178   166.5214 C5            1 RES     
    7644 C5         -93.7891   -73.1017   166.1820 C5            1 RES     
    7645 C5         -95.2332   -73.4474   165.8448 C5            1 RES     
    7646 C5         -95.4587   -74.9345   165.6953 C5            1 RES     
    7647 C5         -92.7853   -65.7575   169.8376 C5            1 RES     
    7648 C5         -91.5541   -65.5918   170.8089 C5            1 RES     
    7649 C5         -91.3860   -66.4240   172.1093 C5            1 RES     
    7650 C5         -92.6241   -66.3502   173.0121 C5            1 RES     
    7651 C5         -92.3863   -66.8927   174.4395 C5            1 RES     
    7652 C5         -93.7150   -67.1477   175.1849 C5            1 RES     
    7653 C5         -94.6596   -65.9352   175.3215 C5            1 RES     
    7654 C5         -94.1483   -64.7964   176.2233 C5            1 RES     
    7655 C5         -93.9135   -65.1892   177.6954 C5            1 RES     
    7656 C5         -95.1740   -65.7030   178.3968 C5            1 RES     
    7657 H6         -78.4711   -70.8504   174.7839 H6            1 RES     
    7658 H6         -78.5701   -69.3780   175.8195 H6            1 RES     
    7659 H6         -79.2444   -70.9388   176.3895 H6            1 RES     
    7660 H6         -80.9597   -70.9341   174.6086 H6            1 RES     
    7661 H6         -81.1244   -69.4533   175.6321 H6            1 RES     
    7662 H6         -79.9623   -68.0928   173.8316 H6            1 RES     
    7663 H6         -79.6625   -69.6055   172.9413 H6            1 RES     
    7664 H6         -82.0875   -69.9580   172.4849 H6            1 RES     
    7665 H6         -81.3712   -68.5072   171.6959 H6            1 RES     
    7666 H6         -82.5674   -66.9797   173.2485 H6            1 RES     
    7667 H6         -83.1507   -68.3851   174.1473 H6            1 RES     
    7668 H6         -85.0508   -67.4779   173.0771 H6            1 RES     
    7669 H6         -84.7543   -69.0719   172.3247 H6            1 RES     
    7670 H6         -84.3822   -66.2944   171.0889 H6            1 RES     
    7671 H6         -84.1501   -67.7412   170.1181 H6            1 RES     
    7672 H6         -86.1100   -66.0916   169.5797 H6            1 RES     
    7673 H6         -86.9239   -66.5200   171.0831 H6            1 RES     
    7674 H6         -86.8578   -68.2112   168.4192 H6            1 RES     
    7675 H6         -87.6185   -68.6954   169.9478 H6            1 RES     
    7676 H6         -89.7263   -67.3764   169.4443 H6            1 RES     
    7677 H6         -89.3712   -68.7631   168.4452 H6            1 RES     
    7678 H6         -89.5394   -67.7261   166.3980 H6            1 RES     
    7679 H6         -89.0444   -65.3592   165.8301 H6            1 RES     
    7680 H6         -87.9073   -66.3954   166.6743 H6            1 RES     
    7681 H6         -88.3678   -65.2408   168.9221 H6            1 RES     
    7682 H6         -89.2645   -64.0329   167.9518 H6            1 RES     
    7683 H6         -86.9859   -63.6839   166.6598 H6            1 RES     
    7684 H6         -86.2137   -64.7866   167.7732 H6            1 RES     
    7685 H6         -85.7721   -62.3814   168.3711 H6            1 RES     
    7686 H6         -86.5418   -63.2745   169.7083 H6            1 RES     
    7687 H6         -88.7005   -62.3347   169.2485 H6            1 RES     
    7688 H6         -87.5818   -61.0092   169.5141 H6            1 RES     
    7689 H6         -87.9069   -61.8108   166.5742 H6            1 RES     
    7690 H6         -89.3885   -61.3037   167.3862 H6            1 RES     
    7691 H6         -88.4898   -59.1283   167.9519 H6            1 RES     
    7692 H6         -88.3529   -59.4785   166.1912 H6            1 RES     
    7693 H6         -85.9081   -60.0006   166.4883 H6            1 RES     
    7694 H6         -86.3525   -58.3245   166.9891 H6            1 RES     
    7695 H6         -86.0561   -59.5762   168.2471 H6            1 RES     
    7696 H6         -91.4945   -67.8795   165.4632 H6            1 RES     
    7697 H6         -91.6287   -66.1960   165.5689 H6            1 RES     
    7698 H6         -93.9248   -65.5828   167.4388 H6            1 RES     
    7699 H6         -94.9932   -66.9155   167.9999 H6            1 RES     
    7700 H6         -91.9222   -67.0800   168.5092 H6            1 RES     
    7701 H6         -92.4008   -68.4918   170.3025 H6            1 RES     
    7702 H6         -94.1566   -68.1598   170.1981 H6            1 RES     
    7703 H6         -93.5333   -70.4075   169.4596 H6            1 RES     
    7704 H6         -94.3886   -69.4611   168.1887 H6            1 RES     
    7705 H6         -92.3834   -69.2594   166.8896 H6            1 RES     
    7706 H6         -91.3133   -69.7508   168.2239 H6            1 RES     
    7707 H6         -91.5352   -71.4199   166.4145 H6            1 RES     
    7708 H6         -92.1570   -72.0022   168.0074 H6            1 RES     
    7709 H6         -94.4885   -71.4164   167.2643 H6            1 RES     
    7710 H6         -93.8769   -70.9806   165.6260 H6            1 RES     
    7711 H6         -93.1044   -73.3622   165.3448 H6            1 RES     
    7712 H6         -93.5041   -73.6820   167.0844 H6            1 RES     
    7713 H6         -95.4839   -72.9630   164.8915 H6            1 RES     
    7714 H6         -95.9006   -73.0886   166.6643 H6            1 RES     
    7715 H6         -94.8659   -75.3192   164.8422 H6            1 RES     
    7716 H6         -96.5396   -75.1107   165.5077 H6            1 RES     
    7717 H6         -95.1688   -75.4530   166.6330 H6            1 RES     
    7718 H6         -93.7328   -65.5891   170.3798 H6            1 RES     
    7719 H6         -92.6329   -64.8929   169.1523 H6            1 RES     
    7720 H6         -90.6061   -65.6311   170.2399 H6            1 RES     
    7721 H6         -91.6116   -64.5407   171.1665 H6            1 RES     
    7722 H6         -91.1245   -67.4833   171.9051 H6            1 RES     
    7723 H6         -90.5198   -65.9839   172.6605 H6            1 RES     
    7724 H6         -93.4163   -66.9417   172.5097 H6            1 RES     
    7725 H6         -92.9511   -65.2930   173.1070 H6            1 RES     
    7726 H6         -91.7344   -66.1942   175.0134 H6            1 RES     
    7727 H6         -91.8609   -67.8712   174.3872 H6            1 RES     
    7728 H6         -93.5077   -67.5799   176.1866 H6            1 RES     
    7729 H6         -94.2616   -67.9249   174.6085 H6            1 RES     
    7730 H6         -95.6314   -66.2935   175.7180 H6            1 RES     
    7731 H6         -94.8782   -65.5247   174.3142 H6            1 RES     
    7732 H6         -93.2044   -64.3888   175.8042 H6            1 RES     
    7733 H6         -94.9039   -63.9797   176.2010 H6            1 RES     
    7734 H6         -93.1137   -65.9543   177.7685 H6            1 RES     
    7735 H6         -93.5648   -64.2843   178.2389 H6            1 RES     
    7736 H6         -95.9820   -64.9419   178.3525 H6            1 RES     
    7737 H6         -95.5322   -66.6471   177.9377 H6            1 RES     
    7738 H6         -94.9446   -65.9144   179.4624 H6            1 RES     
    7739 C0        -107.7329   -70.5188   159.8631 C0            1 RES     
    7740 C0        -106.9541   -71.7374   161.0162 C0            1 RES     
    7741 C0        -107.3281   -71.4243   162.3169 C0            1 RES     
    7742 S1        -106.4675   -72.2336   163.5644 S1            1 RES     
    7743 C0        -105.3940   -73.1806   162.7241 C0            1 RES     
    7744 C0        -105.8050   -72.8204   161.2677 C0            1 RES     
    7745 C0        -107.9261   -70.0923   162.4167 C0            1 RES     
    7746 C0        -107.4005   -69.6017   161.0775 C0            1 RES     
    7747 C0        -106.2295   -68.9249   161.2278 C0            1 RES     
    7748 C0        -105.8482   -68.6725   162.5433 C0            1 RES     
    7749 S1        -107.0255   -69.2102   163.7537 S1            1 RES     
    7750 H2        -105.1886   -73.2326   160.4779 H2            1 RES     
    7751 H2        -105.5265   -68.7684   160.4260 H2            1 RES     
    7752 N3        -103.4218   -74.1873   166.0484 N3            1 RES     
    7753 C0        -104.2004   -73.6196   165.1146 C0            1 RES     
    7754 C0        -104.3117   -74.0386   163.7060 C0            1 RES     
    7755 C0        -103.4051   -75.1872   163.4986 C0            1 RES     
    7756 N3        -103.2267   -75.8484   162.3111 N3            1 RES     
    7757 S1        -102.1351   -77.0492   162.6875 S1            1 RES     
    7758 N3        -101.8124   -76.8046   164.2894 N3            1 RES     
    7759 C0        -102.5878   -75.7503   164.5759 C0            1 RES     
    7760 C0        -102.5907   -75.2480   165.8541 C0            1 RES     
    7761 H4        -104.7581   -72.7876   165.4833 H4            1 RES     
    7762 C5        -123.3369   -61.3607   152.8731 C5            1 RES     
    7763 C5        -122.2153   -62.2852   153.4260 C5            1 RES     
    7764 C5        -120.9239   -62.3091   152.5441 C5            1 RES     
    7765 C5        -119.5921   -62.9669   153.1540 C5            1 RES     
    7766 C5        -119.4399   -64.5423   153.2997 C5            1 RES     
    7767 C5        -118.1977   -65.2642   154.1440 C5            1 RES     
    7768 C5        -116.6236   -65.4541   153.6753 C5            1 RES     
    7769 C5        -115.3810   -66.5038   154.3341 C5            1 RES     
    7770 C5        -114.2363   -66.3462   155.5891 C5            1 RES     
    7771 C5        -112.9942   -67.3251   156.4511 C5            1 RES     
    7772 C5        -111.2824   -67.7910   156.2864 C5            1 RES     
    7773 C5        -111.1944   -67.6591   154.6590 C5            1 RES     
    7774 C5        -112.2068   -68.4518   153.7126 C5            1 RES     
    7775 C5        -112.3896   -67.8670   152.2453 C5            1 RES     
    7776 C5        -113.2439   -68.7458   151.2534 C5            1 RES     
    7777 C5        -112.7879   -70.2189   151.1676 C5            1 RES     
    7778 C5        -111.2870   -70.4001   150.8355 C5            1 RES     
    7779 C5        -110.9665   -71.0288   149.4744 C5            1 RES     
    7780 C5        -111.4772   -70.2425   148.2719 C5            1 RES     
    7781 C5        -109.8238   -68.6013   157.3432 C5            1 RES     
    7782 C0        -109.2506   -69.8205   158.7632 C0            1 RES     
    7783 C5        -110.3135   -70.9403   158.6240 C5            1 RES     
    7784 C5        -111.8226   -70.4669   158.3519 C5            1 RES     
    7785 C5        -112.5904   -70.1122   159.6369 C5            1 RES     
    7786 C5        -111.9157   -69.1321   160.6242 C5            1 RES     
    7787 C5        -111.4510   -67.7852   160.0286 C5            1 RES     
    7788 C5        -111.1096   -66.7172   161.0595 C5            1 RES     
    7789 C5        -110.0791   -67.2014   162.0800 C5            1 RES     
    7790 C5        -109.9538   -66.2049   163.2279 C5            1 RES     
    7791 C5        -109.1811   -66.8503   164.3702 C5            1 RES     
    7792 C5        -109.1853   -66.0103   165.6268 C5            1 RES     
    7793 C5        -112.5859   -71.4950   157.4490 C5            1 RES     
    7794 C5        -113.8950   -71.1133   156.6569 C5            1 RES     
    7795 C5        -115.2789   -70.9480   157.3419 C5            1 RES     
    7796 C5        -115.6609   -72.1710   158.1856 C5            1 RES     
    7797 C5        -117.1435   -72.1876   158.6213 C5            1 RES     
    7798 C5        -117.3972   -73.2073   159.7536 C5            1 RES     
    7799 C5        -117.0063   -74.6689   159.4503 C5            1 RES     
    7800 C5        -117.8500   -75.3686   158.3684 C5            1 RES     
    7801 C5        -119.3504   -75.4981   158.6977 C5            1 RES     
    7802 C5        -119.6264   -76.2915   159.9779 C5            1 RES     
    7803 H6        -122.9982   -60.3018   152.8020 H6            1 RES     
    7804 H6        -123.6985   -61.6783   151.8719 H6            1 RES     
    7805 H6        -124.2181   -61.3616   153.5587 H6            1 RES     
    7806 H6        -121.9646   -61.8858   154.4308 H6            1 RES     
    7807 H6        -122.6291   -63.3082   153.5348 H6            1 RES     
    7808 H6        -121.1775   -62.7150   151.5387 H6            1 RES     
    7809 H6        -120.6886   -61.2289   152.3892 H6            1 RES     
    7810 H6        -119.4583   -62.4969   154.1475 H6            1 RES     
    7811 H6        -118.7681   -62.6354   152.4908 H6            1 RES     
    7812 H6        -119.5472   -64.9857   152.2817 H6            1 RES     
    7813 H6        -120.3793   -64.8252   153.8325 H6            1 RES     
    7814 H6        -118.5810   -66.3057   154.2229 H6            1 RES     
    7815 H6        -118.2303   -64.8210   155.1542 H6            1 RES     
    7816 H6        -116.8072   -65.8696   152.6531 H6            1 RES     
    7817 H6        -116.2101   -64.4420   153.4868 H6            1 RES     
    7818 H6        -114.7703   -66.6269   153.4157 H6            1 RES     
    7819 H6        -115.9322   -67.4622   154.4445 H6            1 RES     
    7820 H6        -113.7505   -65.3747   155.3627 H6            1 RES     
    7821 H6        -114.9629   -66.1476   156.4030 H6            1 RES     
    7822 H6        -113.5522   -68.2376   156.6821 H6            1 RES     
    7823 H6        -112.9638   -66.7535   157.3881 H6            1 RES     
    7824 H6        -110.8601   -66.7752   156.4561 H6            1 RES     
    7825 H6        -110.1583   -67.7245   154.2706 H6            1 RES     
    7826 H6        -111.4962   -66.6012   154.4371 H6            1 RES     
    7827 H6        -113.2340   -68.4673   154.1276 H6            1 RES     
    7828 H6        -111.8395   -69.4886   153.6618 H6            1 RES     
    7829 H6        -111.4050   -67.6791   151.7855 H6            1 RES     
    7830 H6        -112.8716   -66.8618   152.2681 H6            1 RES     
    7831 H6        -113.2208   -68.2980   150.2304 H6            1 RES     
    7832 H6        -114.3145   -68.7488   151.5640 H6            1 RES     
    7833 H6        -112.9826   -70.6499   152.1692 H6            1 RES     
    7834 H6        -113.4272   -70.8198   150.4803 H6            1 RES     
    7835 H6        -110.7188   -69.4607   150.9375 H6            1 RES     
    7836 H6        -110.8657   -71.0907   151.5957 H6            1 RES     
    7837 H6        -111.3819   -72.0576   149.4374 H6            1 RES     
    7838 H6        -109.8584   -71.0991   149.4010 H6            1 RES     
    7839 H6        -111.0794   -69.2067   148.2758 H6            1 RES     
    7840 H6        -111.1330   -70.7525   147.3455 H6            1 RES     
    7841 H6        -112.5861   -70.2190   148.2625 H6            1 RES     
    7842 H6        -109.3256   -67.6729   157.7048 H6            1 RES     
    7843 H6        -109.1239   -68.8668   156.5229 H6            1 RES     
    7844 H6        -109.9415   -71.5073   157.7491 H6            1 RES     
    7845 H6        -110.2787   -71.6007   159.5126 H6            1 RES     
    7846 H6        -111.8647   -69.5839   157.7421 H6            1 RES     
    7847 H6        -113.5602   -69.6748   159.3406 H6            1 RES     
    7848 H6        -112.7903   -71.0465   160.1947 H6            1 RES     
    7849 H6        -112.6663   -68.9305   161.4166 H6            1 RES     
    7850 H6        -111.0483   -69.6484   161.0865 H6            1 RES     
    7851 H6        -110.5321   -67.9302   159.4957 H6            1 RES     
    7852 H6        -112.2170   -67.3761   159.3505 H6            1 RES     
    7853 H6        -110.7180   -65.8118   160.5401 H6            1 RES     
    7854 H6        -112.0538   -66.4513   161.5744 H6            1 RES     
    7855 H6        -110.4520   -68.1434   162.5243 H6            1 RES     
    7856 H6        -109.0926   -67.4017   161.6025 H6            1 RES     
    7857 H6        -109.4636   -65.2663   162.8871 H6            1 RES     
    7858 H6        -110.9744   -65.9734   163.5980 H6            1 RES     
    7859 H6        -108.1401   -66.9792   164.0450 H6            1 RES     
    7860 H6        -109.6464   -67.8328   164.6231 H6            1 RES     
    7861 H6        -108.6663   -65.0501   165.4371 H6            1 RES     
    7862 H6        -108.6544   -66.5693   166.4270 H6            1 RES     
    7863 H6        -110.2310   -65.8274   165.9512 H6            1 RES     
    7864 H6        -112.7243   -72.4473   157.9914 H6            1 RES     
    7865 H6        -111.8786   -71.6865   156.6104 H6            1 RES     
    7866 H6        -113.7127   -70.2324   156.0127 H6            1 RES     
    7867 H6        -114.0474   -71.9473   155.9378 H6            1 RES     
    7868 H6        -115.3418   -70.0255   157.9558 H6            1 RES     
    7869 H6        -116.0296   -70.8356   156.5223 H6            1 RES     
    7870 H6        -115.0042   -72.1551   159.0791 H6            1 RES     
    7871 H6        -115.4743   -73.0971   157.6015 H6            1 RES     
    7872 H6        -117.8004   -72.3932   157.7446 H6            1 RES     
    7873 H6        -117.4282   -71.1912   159.0241 H6            1 RES     
    7874 H6        -118.4597   -73.1588   160.0727 H6            1 RES     
    7875 H6        -116.7872   -72.8792   160.6227 H6            1 RES     
    7876 H6        -117.0804   -75.2518   160.3909 H6            1 RES     
    7877 H6        -115.9379   -74.7093   159.1541 H6            1 RES     
    7878 H6        -117.7378   -74.8277   157.4053 H6            1 RES     
    7879 H6        -117.4388   -76.3928   158.2262 H6            1 RES     
    7880 H6        -119.8165   -74.4948   158.7786 H6            1 RES     
    7881 H6        -119.8405   -76.0301   157.8535 H6            1 RES     
    7882 H6        -119.1846   -77.3085   159.9087 H6            1 RES     
    7883 H6        -119.2166   -75.7720   160.8682 H6            1 RES     
    7884 H6        -120.7227   -76.3908   160.1229 H6            1 RES     
    7885 C0         -98.7818   -75.0575   169.3799 C0            1 RES     
    7886 C0        -100.3047   -74.1769   169.9514 C0            1 RES     
    7887 C0        -101.3251   -75.1059   170.1109 C0            1 RES     
    7888 S1        -102.9029   -74.4624   170.3305 S1            1 RES     
    7889 C0        -102.6507   -72.8232   170.2635 C0            1 RES     
    7890 C0        -101.1070   -72.7992   170.0733 C0            1 RES     
    7891 C0        -101.0056   -76.3926   169.4912 C0            1 RES     
    7892 C0         -99.8834   -75.8537   168.6190 C0            1 RES     
    7893 C0        -100.3371   -75.5357   167.3760 C0            1 RES     
    7894 C0        -101.6487   -75.9156   167.1020 C0            1 RES     
    7895 S1        -102.4275   -76.8232   168.4097 S1            1 RES     
    7896 H2        -100.6589   -71.8287   169.8972 H2            1 RES     
    7897 H2         -99.8238   -74.8610   166.7107 H2            1 RES     
    7898 N3        -106.5693   -72.0545   170.1786 N3            1 RES     
    7899 C0        -105.3462   -72.6040   170.1290 C0            1 RES     
    7900 C0        -104.0696   -71.9003   170.3463 C0            1 RES     
    7901 C0        -104.3720   -70.4791   170.6165 C0            1 RES     
    7902 N3        -103.4386   -69.5054   170.8603 N3            1 RES     
    7903 S1        -104.3533   -68.1382   171.1238 S1            1 RES     
    7904 N3        -105.9094   -68.6579   170.9281 N3            1 RES     
    7905 C0        -105.7407   -69.9587   170.6556 C0            1 RES     
    7906 C0        -106.8440   -70.7453   170.4317 C0            1 RES     
    7907 H4        -105.3638   -73.6456   169.8967 H4            1 RES     
    7908 C5         -85.4179   -88.9535   171.5071 C5            1 RES     
    7909 C5         -86.4649   -87.8049   171.5629 C5            1 RES     
    7910 C5         -86.1137   -86.5847   170.6498 C5            1 RES     
    7911 C5         -87.2480   -85.4817   170.3757 C5            1 RES     
    7912 C5         -87.6720   -84.4357   171.4948 C5            1 RES     
    7913 C5         -89.0004   -83.4392   171.3552 C5            1 RES     
    7914 C5         -89.1557   -82.0719   170.4387 C5            1 RES     
    7915 C5         -90.3621   -80.8003   170.5255 C5            1 RES     
    7916 C5         -91.9033   -80.5763   169.8294 C5            1 RES     
    7917 C5         -93.2864   -79.4240   169.8876 C5            1 RES     
    7918 C5         -93.8125   -77.8993   169.1304 C5            1 RES     
    7919 C5         -92.3224   -77.3276   168.7748 C5            1 RES     
    7920 C5         -91.2079   -77.1727   169.9074 C5            1 RES     
    7921 C5         -89.7017   -77.1307   169.3996 C5            1 RES     
    7922 C5         -88.6141   -76.7968   170.4914 C5            1 RES     
    7923 C5         -88.9172   -75.5232   171.3106 C5            1 RES     
    7924 C5         -89.1713   -74.2612   170.4509 C5            1 RES     
    7925 C5         -88.1233   -73.1474   170.5581 C5            1 RES     
    7926 C5         -86.7148   -73.5536   170.1386 C5            1 RES     
    7927 C5         -95.4271   -76.7768   168.9461 C5            1 RES     
    7928 C0         -97.1233   -76.1339   169.6818 C0            1 RES     
    7929 C5         -96.7843   -76.1021   171.1942 C5            1 RES     
    7930 C5         -95.9262   -77.3332   171.7630 C5            1 RES     
    7931 C5         -96.7860   -78.5519   172.1399 C5            1 RES     
    7932 C5         -97.7903   -79.0709   171.0851 C5            1 RES     
    7933 C5         -97.2046   -79.3865   169.6915 C5            1 RES     
    7934 C5         -98.1175   -80.2047   168.7876 C5            1 RES     
    7935 C5         -99.4978   -79.5675   168.6238 C5            1 RES     
    7936 C5        -100.4525   -80.5311   167.9264 C5            1 RES     
    7937 C5        -101.8775   -80.0128   168.0645 C5            1 RES     
    7938 C5        -102.9100   -81.0058   167.5820 C5            1 RES     
    7939 C5         -94.9755   -76.8754   172.9212 C5            1 RES     
    7940 C5         -93.7224   -77.7217   173.3684 C5            1 RES     
    7941 C5         -93.8378   -79.0225   174.2089 C5            1 RES     
    7942 C5         -94.6634   -78.8194   175.4859 C5            1 RES     
    7943 C5         -94.5409   -79.9816   176.4971 C5            1 RES     
    7944 C5         -95.6479   -79.9249   177.5730 C5            1 RES     
    7945 C5         -95.7254   -78.6234   178.3984 C5            1 RES     
    7946 C5         -94.5319   -78.3625   179.3361 C5            1 RES     
    7947 C5         -94.3218   -79.4266   180.4315 C5            1 RES     
    7948 C5         -95.5236   -79.5821   181.3676 C5            1 RES     
    7949 H6         -85.3145   -89.3649   170.4770 H6            1 RES     
    7950 H6         -84.4131   -88.6339   171.8567 H6            1 RES     
    7951 H6         -85.7375   -89.8059   172.1534 H6            1 RES     
    7952 H6         -87.4214   -88.2532   171.2222 H6            1 RES     
    7953 H6         -86.5710   -87.4812   172.6181 H6            1 RES     
    7954 H6         -85.1566   -86.1340   170.9972 H6            1 RES     
    7955 H6         -85.8930   -87.0496   169.6592 H6            1 RES     
    7956 H6         -88.1421   -86.0504   170.0545 H6            1 RES     
    7957 H6         -86.8795   -84.8854   169.5170 H6            1 RES     
    7958 H6         -86.7608   -83.8567   171.7759 H6            1 RES     
    7959 H6         -87.8720   -85.0939   172.3740 H6            1 RES     
    7960 H6         -89.0926   -83.0720   172.4014 H6            1 RES     
    7961 H6         -89.8547   -84.1109   171.1625 H6            1 RES     
    7962 H6         -88.2094   -81.5612   170.7467 H6            1 RES     
    7963 H6         -88.9775   -82.3598   169.3822 H6            1 RES     
    7964 H6         -89.7502   -79.9693   170.1174 H6            1 RES     
    7965 H6         -90.4113   -80.6119   171.6195 H6            1 RES     
    7966 H6         -91.7219   -80.7752   168.7531 H6            1 RES     
    7967 H6         -92.3664   -81.4960   170.2412 H6            1 RES     
    7968 H6         -93.4376   -79.3133   170.9657 H6            1 RES     
    7969 H6         -94.0764   -80.1068   169.5481 H6            1 RES     
    7970 H6         -93.9673   -78.3144   168.1093 H6            1 RES     
    7971 H6         -92.3421   -76.4360   168.1165 H6            1 RES     
    7972 H6         -91.8524   -78.1210   168.1354 H6            1 RES     
    7973 H6         -91.2280   -78.0168   170.6249 H6            1 RES     
    7974 H6         -91.4465   -76.2481   170.4556 H6            1 RES     
    7975 H6         -89.5993   -76.4083   168.5728 H6            1 RES     
    7976 H6         -89.4012   -78.1036   168.9451 H6            1 RES     
    7977 H6         -87.6115   -76.6898   170.0108 H6            1 RES     
    7978 H6         -88.5207   -77.6403   171.2142 H6            1 RES     
    7979 H6         -89.8366   -75.7501   171.8851 H6            1 RES     
    7980 H6         -88.1457   -75.3292   172.0911 H6            1 RES     
    7981 H6         -89.3270   -74.5036   169.3866 H6            1 RES     
    7982 H6         -90.1257   -73.8150   170.8005 H6            1 RES     
    7983 H6         -88.0952   -72.7679   171.6010 H6            1 RES     
    7984 H6         -88.4598   -72.3187   169.8961 H6            1 RES     
    7985 H6         -86.7049   -73.9374   169.0976 H6            1 RES     
    7986 H6         -86.0584   -72.6575   170.1936 H6            1 RES     
    7987 H6         -86.3084   -74.3230   170.8265 H6            1 RES     
    7988 H6         -95.7991   -77.1550   167.9666 H6            1 RES     
    7989 H6         -94.9586   -75.8307   168.6014 H6            1 RES     
    7990 H6         -96.1941   -75.1698   171.2813 H6            1 RES     
    7991 H6         -97.7154   -75.9860   171.7831 H6            1 RES     
    7992 H6         -95.2167   -77.6969   171.0435 H6            1 RES     
    7993 H6         -96.1026   -79.3828   172.3893 H6            1 RES     
    7994 H6         -97.3693   -78.3022   173.0463 H6            1 RES     
    7995 H6         -98.2245   -80.0010   171.5072 H6            1 RES     
    7996 H6         -98.6023   -78.3208   170.9813 H6            1 RES     
    7997 H6         -97.0611   -78.4719   169.1507 H6            1 RES     
    7998 H6         -96.2455   -79.9205   169.7857 H6            1 RES     
    7999 H6         -97.6421   -80.3192   167.7857 H6            1 RES     
    8000 H6         -98.2173   -81.2063   169.2503 H6            1 RES     
    8001 H6         -99.9159   -79.3897   169.6324 H6            1 RES     
    8002 H6         -99.4376   -78.5921   168.0887 H6            1 RES     
    8003 H6        -100.1719   -80.6644   166.8582 H6            1 RES     
    8004 H6        -100.3967   -81.5103   168.4463 H6            1 RES     
    8005 H6        -101.9667   -79.1009   167.4589 H6            1 RES     
    8006 H6        -102.0923   -79.8026   169.1394 H6            1 RES     
    8007 H6        -102.7759   -81.1883   166.4976 H6            1 RES     
    8008 H6        -103.9206   -80.5823   167.7665 H6            1 RES     
    8009 H6        -102.8103   -81.9547   168.1492 H6            1 RES     
    8010 H6         -95.5692   -76.5667   173.8001 H6            1 RES     
    8011 H6         -94.4817   -75.9643   172.5132 H6            1 RES     
    8012 H6         -93.0611   -77.9181   172.5034 H6            1 RES     
    8013 H6         -93.1294   -77.0361   174.0120 H6            1 RES     
    8014 H6         -94.2441   -79.8728   173.6224 H6            1 RES     
    8015 H6         -92.7980   -79.3071   174.5017 H6            1 RES     
    8016 H6         -95.7188   -78.7073   175.1645 H6            1 RES     
    8017 H6         -94.3291   -77.8933   175.9999 H6            1 RES     
    8018 H6         -93.5293   -79.9803   176.9650 H6            1 RES     
    8019 H6         -94.6625   -80.9530   175.9700 H6            1 RES     
    8020 H6         -95.5575   -80.7985   178.2526 H6            1 RES     
    8021 H6         -96.6176   -80.0330   177.0409 H6            1 RES     
    8022 H6         -96.6541   -78.6497   179.0040 H6            1 RES     
    8023 H6         -95.8379   -77.7593   177.7117 H6            1 RES     
    8024 H6         -93.6023   -78.2754   178.7353 H6            1 RES     
    8025 H6         -94.6999   -77.3824   179.8356 H6            1 RES     
    8026 H6         -94.0809   -80.4087   179.9754 H6            1 RES     
    8027 H6         -93.4482   -79.1169   181.0454 H6            1 RES     
    8028 H6         -95.7688   -78.6123   181.8510 H6            1 RES     
    8029 H6         -96.4131   -79.9557   180.8202 H6            1 RES     
    8030 H6         -95.2825   -80.3218   182.1598 H6            1 RES     
    8031 C0        -111.4224   -69.5512   168.2900 C0            1 RES     
    8032 C0        -111.2769   -71.3574   168.6610 C0            1 RES     
    8033 C0        -111.2002   -71.5263   170.0377 C0            1 RES     
    8034 S1        -110.7459   -73.0916   170.5811 S1            1 RES     
    8035 C0        -110.5288   -73.9303   169.1652 C0            1 RES     
    8036 C0        -110.8983   -72.8208   168.1395 C0            1 RES     
    8037 C0        -110.9343   -70.2685   170.7369 C0            1 RES     
    8038 C0        -110.4478   -69.5230   169.5048 C0            1 RES     
    8039 C0        -109.0922   -69.5795   169.4001 C0            1 RES     
    8040 C0        -108.4299   -70.1359   170.4917 C0            1 RES     
    8041 S1        -109.4954   -70.5730   171.8386 S1            1 RES     
    8042 H2        -110.7500   -73.0632   167.0941 H2            1 RES     
    8043 H2        -108.5599   -69.4117   168.4781 H2            1 RES     
    8044 N3        -108.9429   -77.0634   171.0685 N3            1 RES     
    8045 C0        -109.4139   -75.8620   170.7005 C0            1 RES     
    8046 C0        -109.9630   -75.5134   169.3780 C0            1 RES     
    8047 C0        -109.8924   -76.7168   168.5229 C0            1 RES     
    8048 N3        -110.3036   -76.7831   167.2170 N3            1 RES     
    8049 S1        -110.0173   -78.3684   166.7925 S1            1 RES     
    8050 N3        -109.3613   -79.0322   168.1559 N3            1 RES     
    8051 C0        -109.3643   -77.9954   169.0045 C0            1 RES     
    8052 C0        -108.8832   -78.1708   170.2788 C0            1 RES     
    8053 H4        -109.3490   -75.1312   171.4757 H4            1 RES     
    8054 C5        -120.2113   -52.4154   170.5996 C5            1 RES     
    8055 C5        -119.7191   -53.8771   170.4003 C5            1 RES     
    8056 C5        -118.8191   -54.0740   169.1366 C5            1 RES     
    8057 C5        -117.9982   -55.4460   168.9873 C5            1 RES     
    8058 C5        -118.7237   -56.8058   168.5989 C5            1 RES     
    8059 C5        -117.9739   -58.2923   168.6708 C5            1 RES     
    8060 C5        -116.8687   -58.9271   167.6177 C5            1 RES     
    8061 C5        -116.3301   -60.5869   167.4303 C5            1 RES     
    8062 C5        -115.1065   -61.5274   168.1572 C5            1 RES     
    8063 C5        -114.4964   -63.2220   168.1697 C5            1 RES     
    8064 C5        -113.3830   -64.2679   167.2527 C5            1 RES     
    8065 C5        -113.4990   -63.4806   165.8244 C5            1 RES     
    8066 C5        -114.9170   -63.2308   165.1346 C5            1 RES     
    8067 C5        -114.9775   -62.0421   164.0802 C5            1 RES     
    8068 C5        -116.3215   -61.9088   163.2665 C5            1 RES     
    8069 C5        -116.7793   -63.2201   162.5912 C5            1 RES     
    8070 C5        -115.7071   -63.8767   161.6881 C5            1 RES     
    8071 C5        -116.0121   -63.9032   160.1859 C5            1 RES     
    8072 C5        -116.1862   -62.5304   159.5455 C5            1 RES     
    8073 C5        -112.4714   -66.0134   167.4058 C5            1 RES     
    8074 C0        -112.4513   -67.8479   168.0882 C0            1 RES     
    8075 C5        -113.9625   -68.1892   168.0330 C5            1 RES     
    8076 C5        -114.9762   -67.0329   168.4919 C5            1 RES     
    8077 C5        -115.2005   -66.9884   170.0132 C5            1 RES     
    8078 C5        -113.9479   -66.9614   170.9192 C5            1 RES     
    8079 C5        -112.9174   -65.8522   170.6152 C5            1 RES     
    8080 C5        -111.8812   -65.6288   171.7090 C5            1 RES     
    8081 C5        -111.1443   -66.9149   172.0843 C5            1 RES     
    8082 C5        -110.3056   -66.7038   173.3406 C5            1 RES     
    8083 C5        -109.8490   -68.0557   173.8718 C5            1 RES     
    8084 C5        -109.1853   -67.9577   175.2263 C5            1 RES     
    8085 C5        -116.3143   -67.0957   167.6793 C5            1 RES     
    8086 C5        -117.2988   -65.8680   167.5788 C5            1 RES     
    8087 C5        -118.2277   -65.4324   168.7447 C5            1 RES     
    8088 C5        -119.0823   -66.5919   169.2728 C5            1 RES     
    8089 C5        -120.2325   -66.1437   170.2025 C5            1 RES     
    8090 C5        -120.8233   -67.3295   170.9967 C5            1 RES     
    8091 C5        -121.3628   -68.5065   170.1573 C5            1 RES     
    8092 C5        -122.6132   -68.1984   169.3126 C5            1 RES     
    8093 C5        -123.8576   -67.7830   170.1221 C5            1 RES     
    8094 C5        -124.3175   -68.8485   171.1211 C5            1 RES     
    8095 H6        -119.3592   -51.7082   170.7206 H6            1 RES     
    8096 H6        -120.8433   -52.0583   169.7588 H6            1 RES     
    8097 H6        -120.8216   -52.3316   171.5309 H6            1 RES     
    8098 H6        -119.1318   -54.1231   171.3095 H6            1 RES     
    8099 H6        -120.6066   -54.5399   170.3510 H6            1 RES     
    8100 H6        -119.4124   -53.8316   168.2261 H6            1 RES     
    8101 H6        -118.0530   -53.2673   169.2282 H6            1 RES     
    8102 H6        -117.4690   -55.5804   169.9506 H6            1 RES     
    8103 H6        -117.2477   -55.2568   168.1937 H6            1 RES     
    8104 H6        -119.2204   -56.6515   167.6120 H6            1 RES     
    8105 H6        -119.5622   -56.8481   169.3347 H6            1 RES     
    8106 H6        -118.8516   -58.9698   168.5783 H6            1 RES     
    8107 H6        -117.5929   -58.3814   169.7027 H6            1 RES     
    8108 H6        -117.4129   -58.7155   166.6636 H6            1 RES     
    8109 H6        -116.0003   -58.2372   167.5938 H6            1 RES     
    8110 H6        -116.0468   -60.5444   166.3581 H6            1 RES     
    8111 H6        -117.2938   -61.1395   167.4522 H6            1 RES     
    8112 H6        -114.2076   -60.8842   168.0612 H6            1 RES     
    8113 H6        -115.4594   -61.4134   169.2024 H6            1 RES     
    8114 H6        -115.4209   -63.7894   168.3139 H6            1 RES     
    8115 H6        -114.0045   -63.2064   169.1512 H6            1 RES     
    8116 H6        -112.4478   -63.7382   167.5423 H6            1 RES     
    8117 H6        -112.7513   -63.8166   165.0782 H6            1 RES     
    8118 H6        -113.1947   -62.4244   166.0500 H6            1 RES     
    8119 H6        -115.6980   -62.9736   165.8773 H6            1 RES     
    8120 H6        -115.1999   -64.1784   164.6506 H6            1 RES     
    8121 H6        -114.1430   -62.1262   163.3642 H6            1 RES     
    8122 H6        -114.8103   -61.0559   164.5730 H6            1 RES     
    8123 H6        -116.2184   -61.1154   162.4871 H6            1 RES     
    8124 H6        -117.1476   -61.5763   163.9369 H6            1 RES     
    8125 H6        -117.0165   -63.9153   163.4202 H6            1 RES     
    8126 H6        -117.7446   -63.1007   162.0472 H6            1 RES     
    8127 H6        -114.7060   -63.4408   161.8415 H6            1 RES     
    8128 H6        -115.6239   -64.9388   161.9999 H6            1 RES     
    8129 H6        -116.9276   -64.5051   160.0069 H6            1 RES     
    8130 H6        -115.1578   -64.4148   159.6891 H6            1 RES     
    8131 H6        -115.2866   -61.9006   159.7037 H6            1 RES     
    8132 H6        -116.3364   -62.6681   158.4522 H6            1 RES     
    8133 H6        -117.0804   -62.0182   159.9558 H6            1 RES     
    8134 H6        -111.4919   -65.6706   167.8107 H6            1 RES     
    8135 H6        -112.1784   -66.1648   166.3453 H6            1 RES     
    8136 H6        -114.1132   -68.4066   166.9582 H6            1 RES     
    8137 H6        -114.1576   -69.1143   168.6103 H6            1 RES     
    8138 H6        -114.6189   -66.0551   168.2282 H6            1 RES     
    8139 H6        -115.7977   -66.0876   170.2400 H6            1 RES     
    8140 H6        -115.7922   -67.8762   170.3061 H6            1 RES     
    8141 H6        -114.3221   -66.8249   171.9551 H6            1 RES     
    8142 H6        -113.4515   -67.9523   170.8536 H6            1 RES     
    8143 H6        -112.3327   -66.1342   169.7620 H6            1 RES     
    8144 H6        -113.4249   -64.8937   170.4215 H6            1 RES     
    8145 H6        -111.1428   -64.8652   171.3704 H6            1 RES     
    8146 H6        -112.4224   -65.2334   172.5911 H6            1 RES     
    8147 H6        -111.8998   -67.6818   172.3391 H6            1 RES     
    8148 H6        -110.5262   -67.2944   171.2385 H6            1 RES     
    8149 H6        -109.4395   -66.0373   173.1324 H6            1 RES     
    8150 H6        -110.9514   -66.2371   174.1134 H6            1 RES     
    8151 H6        -109.1223   -68.4714   173.1610 H6            1 RES     
    8152 H6        -110.7331   -68.7283   173.9804 H6            1 RES     
    8153 H6        -108.2596   -67.3543   175.1469 H6            1 RES     
    8154 H6        -108.9331   -68.9835   175.5711 H6            1 RES     
    8155 H6        -109.8859   -67.4975   175.9539 H6            1 RES     
    8156 H6        -116.8682   -68.0179   167.9305 H6            1 RES     
    8157 H6        -115.9772   -67.1846   166.6216 H6            1 RES     
    8158 H6        -116.7651   -64.9757   167.2008 H6            1 RES     
    8159 H6        -118.0010   -66.1311   166.7580 H6            1 RES     
    8160 H6        -117.6692   -64.9585   169.5787 H6            1 RES     
    8161 H6        -118.9099   -64.6490   168.3340 H6            1 RES     
    8162 H6        -118.3938   -67.2666   169.8210 H6            1 RES     
    8163 H6        -119.5369   -67.1364   168.4182 H6            1 RES     
    8164 H6        -121.0235   -65.6241   169.6138 H6            1 RES     
    8165 H6        -119.8481   -65.4204   170.9544 H6            1 RES     
    8166 H6        -121.6130   -66.9643   171.6868 H6            1 RES     
    8167 H6        -120.0039   -67.7295   171.6321 H6            1 RES     
    8168 H6        -121.5955   -69.3461   170.8434 H6            1 RES     
    8169 H6        -120.5602   -68.8782   169.4876 H6            1 RES     
    8170 H6        -122.3762   -67.3983   168.5802 H6            1 RES     
    8171 H6        -122.8679   -69.1149   168.7353 H6            1 RES     
    8172 H6        -123.6691   -66.8311   170.6597 H6            1 RES     
    8173 H6        -124.6882   -67.6059   169.4047 H6            1 RES     
    8174 H6        -124.5315   -69.8054   170.5990 H6            1 RES     
    8175 H6        -123.5521   -69.0202   171.9054 H6            1 RES     
    8176 H6        -125.2447   -68.5060   171.6270 H6            1 RES     
    8177 C0        -105.1013   -81.2716   172.0274 C0            1 RES     
    8178 C0        -105.7654   -80.1667   173.3539 C0            1 RES     
    8179 C0        -107.0881   -80.5109   173.6019 C0            1 RES     
    8180 S1        -107.9849   -79.4102   174.5694 S1            1 RES     
    8181 C0        -106.8810   -78.2143   174.8956 C0            1 RES     
    8182 C0        -105.6374   -78.7928   174.1618 C0            1 RES     
    8183 C0        -107.6398   -81.3794   172.5612 C0            1 RES     
    8184 C0        -106.5644   -81.0674   171.5333 C0            1 RES     
    8185 C0        -106.9580   -80.0668   170.6992 C0            1 RES     
    8186 C0        -108.2838   -79.6617   170.8337 C0            1 RES     
    8187 S1        -109.2132   -80.6063   172.0103 S1            1 RES     
    8188 H2        -104.7618   -78.1561   174.1237 H2            1 RES     
    8189 H2        -106.2715   -79.4719   170.1193 H2            1 RES     
    8190 N3        -109.6690   -75.8468   176.5006 N3            1 RES     
    8191 C0        -108.9825   -76.7931   175.8421 C0            1 RES     
    8192 C0        -107.5150   -76.9051   175.7651 C0            1 RES     
    8193 C0        -106.9310   -75.7841   176.5308 C0            1 RES     
    8194 N3        -105.5898   -75.5458   176.6836 N3            1 RES     
    8195 S1        -105.5367   -74.1934   177.6549 S1            1 RES     
    8196 N3        -107.1271   -73.8241   177.9084 N3            1 RES     
    8197 C0        -107.7541   -74.7913   177.2256 C0            1 RES     
    8198 C0        -109.1271   -74.8176   177.2081 C0            1 RES     
    8199 H4        -109.6116   -77.4939   175.3396 H4            1 RES     
    8200 C5        -101.5480   -98.9492   164.8796 C5            1 RES     
    8201 C5        -101.7575   -97.6165   165.6532 C5            1 RES     
    8202 C5        -100.9407   -96.4148   165.0745 C5            1 RES     
    8203 C5        -101.2997   -94.9324   165.5764 C5            1 RES     
    8204 C5        -100.8868   -94.4272   167.0257 C5            1 RES     
    8205 C5        -101.4418   -93.0019   167.6872 C5            1 RES     
    8206 C5        -100.9577   -91.4603   167.3365 C5            1 RES     
    8207 C5        -101.2243   -89.9751   168.2326 C5            1 RES     
    8208 C5        -102.4704   -88.8104   168.2569 C5            1 RES     
    8209 C5        -102.9520   -87.3274   169.1584 C5            1 RES     
    8210 C5        -102.6580   -85.5702   169.1319 C5            1 RES     
    8211 C5        -101.1811   -85.6247   168.4322 C5            1 RES     
    8212 C5        -100.0034   -86.4996   169.0618 C5            1 RES     
    8213 C5         -98.8314   -86.9065   168.0672 C5            1 RES     
    8214 C5         -97.5830   -87.6117   168.7231 C5            1 RES     
    8215 C5         -96.9931   -86.8494   169.9298 C5            1 RES     
    8216 C5         -96.6391   -85.3716   169.6351 C5            1 RES     
    8217 C5         -95.1485   -85.0141   169.6659 C5            1 RES     
    8218 C5         -94.2906   -85.7662   168.6544 C5            1 RES     
    8219 C5        -103.3840   -83.9004   169.8970 C5            1 RES     
    8220 C0        -104.2950   -82.9772   171.3631 C0            1 RES     
    8221 C5        -103.7580   -83.7743   172.5794 C5            1 RES     
    8222 C5        -103.6483   -85.3656   172.4024 C5            1 RES     
    8223 C5        -104.9657   -86.1031   172.6977 C5            1 RES     
    8224 C5        -106.2427   -85.5952   171.9895 C5            1 RES     
    8225 C5        -106.1627   -85.4805   170.4515 C5            1 RES     
    8226 C5        -107.5068   -85.3132   169.7548 C5            1 RES     
    8227 C5        -108.3072   -84.1342   170.3092 C5            1 RES     
    8228 C5        -109.7329   -84.1536   169.7676 C5            1 RES     
    8229 C5        -110.5874   -83.1817   170.5699 C5            1 RES     
    8230 C5        -112.0584   -83.2851   170.2379 C5            1 RES     
    8231 C5        -102.4324   -85.9433   173.2038 C5            1 RES     
    8232 C5        -101.8063   -87.3552   172.8854 C5            1 RES     
    8233 C5        -102.4868   -88.6916   173.2890 C5            1 RES     
    8234 C5        -102.8437   -88.7363   174.7803 C5            1 RES     
    8235 C5        -103.2257   -90.1456   175.2865 C5            1 RES     
    8236 C5        -103.9258   -90.0906   176.6623 C5            1 RES     
    8237 C5        -103.1354   -89.4089   177.7988 C5            1 RES     
    8238 C5        -101.8656   -90.1494   178.2583 C5            1 RES     
    8239 C5        -102.1082   -91.5584   178.8348 C5            1 RES     
    8240 C5        -103.0258   -91.5649   180.0607 C5            1 RES     
    8241 H6        -101.8567   -98.8578   163.8131 H6            1 RES     
    8242 H6        -100.4941   -99.2994   164.9079 H6            1 RES     
    8243 H6        -102.1778   -99.7597   165.3189 H6            1 RES     
    8244 H6        -102.8418   -97.3919   165.5771 H6            1 RES     
    8245 H6        -101.4955   -97.7863   166.7171 H6            1 RES     
    8246 H6         -99.8535   -96.6406   165.1569 H6            1 RES     
    8247 H6        -101.1770   -96.4343   163.9837 H6            1 RES     
    8248 H6        -102.3967   -94.8379   165.4591 H6            1 RES     
    8249 H6        -100.8059   -94.2488   164.8570 H6            1 RES     
    8250 H6         -99.7766   -94.5034   167.1043 H6            1 RES     
    8251 H6        -101.2740   -95.2426   167.6826 H6            1 RES     
    8252 H6        -101.1457   -93.1400   168.7507 H6            1 RES     
    8253 H6        -102.5426   -93.0624   167.6383 H6            1 RES     
    8254 H6         -99.8523   -91.6172   167.4058 H6            1 RES     
    8255 H6        -101.1412   -91.2939   166.2552 H6            1 RES     
    8256 H6        -100.3293   -89.4163   167.8885 H6            1 RES     
    8257 H6        -100.9846   -90.2928   169.2701 H6            1 RES     
    8258 H6        -102.6051   -88.5672   167.1828 H6            1 RES     
    8259 H6        -103.2924   -89.5057   168.5231 H6            1 RES     
    8260 H6        -102.8413   -87.6535   170.1970 H6            1 RES     
    8261 H6        -104.0302   -87.3597   168.9530 H6            1 RES     
    8262 H6        -103.1783   -85.3715   168.1681 H6            1 RES     
    8263 H6        -100.8086   -84.6286   168.1198 H6            1 RES     
    8264 H6        -101.3396   -86.1665   167.4624 H6            1 RES     
    8265 H6        -100.3726   -87.4675   169.4550 H6            1 RES     
    8266 H6         -99.5979   -85.9173   169.9037 H6            1 RES     
    8267 H6         -98.4799   -86.0211   167.5115 H6            1 RES     
    8268 H6         -99.1981   -87.5953   167.2708 H6            1 RES     
    8269 H6         -96.7819   -87.7576   167.9585 H6            1 RES     
    8270 H6         -97.8583   -88.6316   169.0790 H6            1 RES     
    8271 H6         -97.7777   -86.8755   170.7112 H6            1 RES     
    8272 H6         -96.1303   -87.3858   170.3878 H6            1 RES     
    8273 H6         -97.0713   -85.0187   168.6841 H6            1 RES     
    8274 H6         -97.1151   -84.7577   170.4281 H6            1 RES     
    8275 H6         -94.7480   -85.1941   170.6855 H6            1 RES     
    8276 H6         -95.0703   -83.9253   169.4496 H6            1 RES     
    8277 H6         -94.6622   -85.6070   167.6211 H6            1 RES     
    8278 H6         -93.2490   -85.3821   168.7210 H6            1 RES     
    8279 H6         -94.2749   -86.8511   168.8850 H6            1 RES     
    8280 H6        -104.0545   -83.5955   169.0614 H6            1 RES     
    8281 H6        -102.5323   -83.2168   169.6957 H6            1 RES     
    8282 H6        -102.7452   -83.3471   172.7094 H6            1 RES     
    8283 H6        -104.3596   -83.5343   173.4781 H6            1 RES     
    8284 H6        -103.3858   -85.6426   171.3986 H6            1 RES     
    8285 H6        -104.8280   -87.1634   172.4210 H6            1 RES     
    8286 H6        -105.1583   -86.0538   173.7861 H6            1 RES     
    8287 H6        -107.0452   -86.3160   172.2510 H6            1 RES     
    8288 H6        -106.5067   -84.6060   172.4186 H6            1 RES     
    8289 H6        -105.6254   -84.5907   170.1888 H6            1 RES     
    8290 H6        -105.6604   -86.3621   170.0224 H6            1 RES     
    8291 H6        -107.3427   -85.1671   168.6618 H6            1 RES     
    8292 H6        -108.0693   -86.2554   169.9071 H6            1 RES     
    8293 H6        -108.3885   -84.2593   171.4054 H6            1 RES     
    8294 H6        -107.8032   -83.1627   170.1003 H6            1 RES     
    8295 H6        -109.7490   -83.9066   168.6830 H6            1 RES     
    8296 H6        -110.1467   -85.1725   169.9190 H6            1 RES     
    8297 H6        -110.2519   -82.1625   170.3357 H6            1 RES     
    8298 H6        -110.4739   -83.4007   171.6584 H6            1 RES     
    8299 H6        -112.2239   -83.0046   169.1791 H6            1 RES     
    8300 H6        -112.6194   -82.5908   170.8996 H6            1 RES     
    8301 H6        -112.4119   -84.3208   170.4236 H6            1 RES     
    8302 H6        -102.6051   -85.8312   174.2891 H6            1 RES     
    8303 H6        -101.5895   -85.2701   172.9271 H6            1 RES     
    8304 H6        -101.5138   -87.4159   171.8201 H6            1 RES     
    8305 H6        -100.8387   -87.3688   173.4328 H6            1 RES     
    8306 H6        -103.3840   -88.9141   172.6745 H6            1 RES     
    8307 H6        -101.7484   -89.5027   173.0778 H6            1 RES     
    8308 H6        -103.6950   -88.0398   174.9217 H6            1 RES     
    8309 H6        -101.9749   -88.3905   175.3798 H6            1 RES     
    8310 H6        -102.3237   -90.7992   175.3236 H6            1 RES     
    8311 H6        -103.9480   -90.6147   174.5833 H6            1 RES     
    8312 H6        -104.2272   -91.1134   176.9725 H6            1 RES     
    8313 H6        -104.8630   -89.5101   176.5219 H6            1 RES     
    8314 H6        -103.8113   -89.2884   178.6698 H6            1 RES     
    8315 H6        -102.8583   -88.3806   177.4879 H6            1 RES     
    8316 H6        -101.1544   -90.2251   177.4090 H6            1 RES     
    8317 H6        -101.3794   -89.5334   179.0472 H6            1 RES     
    8318 H6        -102.5289   -92.2275   178.0564 H6            1 RES     
    8319 H6        -101.1246   -91.9757   179.1419 H6            1 RES     
    8320 H6        -102.6109   -90.9157   180.8611 H6            1 RES     
    8321 H6        -104.0471   -91.2199   179.7993 H6            1 RES     
    8322 H6        -103.1118   -92.5999   180.4532 H6            1 RES     
    8323 C0        -112.5480   -70.9129   177.3696 C0            1 RES     
    8324 C0        -113.3708   -72.5498   177.1149 C0            1 RES     
    8325 C0        -113.1810   -73.3272   178.2503 C0            1 RES     
    8326 S1        -113.5904   -74.9893   178.1032 S1            1 RES     
    8327 C0        -114.1050   -75.1096   176.5297 C0            1 RES     
    8328 C0        -113.9564   -73.6257   176.0871 C0            1 RES     
    8329 C0        -112.1545   -72.7751   179.1353 C0            1 RES     
    8330 C0        -111.5415   -71.8613   178.0866 C0            1 RES     
    8331 C0        -110.4825   -72.4576   177.4744 C0            1 RES     
    8332 C0        -110.0749   -73.6689   178.0280 C0            1 RES     
    8333 S1        -110.9714   -74.1376   179.4830 S1            1 RES     
    8334 H2        -114.1372   -73.4155   175.0398 H2            1 RES     
    8335 H2        -110.1026   -72.1521   176.5132 H2            1 RES     
    8336 N3        -114.2413   -79.0977   176.7028 N3            1 RES     
    8337 C0        -114.0190   -77.7898   176.9044 C0            1 RES     
    8338 C0        -114.4863   -76.6878   176.0446 C0            1 RES     
    8339 C0        -115.2329   -77.2768   174.9132 C0            1 RES     
    8340 N3        -115.8148   -76.5665   173.8955 N3            1 RES     
    8341 S1        -116.5279   -77.7397   172.9519 S1            1 RES     
    8342 N3        -116.1414   -79.1528   173.7160 N3            1 RES     
    8343 C0        -115.4330   -78.7206   174.7679 C0            1 RES     
    8344 C0        -114.9329   -79.6361   175.6611 C0            1 RES     
    8345 H4        -113.4366   -77.5934   177.7770 H4            1 RES     
    8346 C5        -109.8575   -54.7029   187.6754 C5            1 RES     
    8347 C5        -110.2977   -55.9709   186.8900 C5            1 RES     
    8348 C5        -109.8744   -55.9602   185.3844 C5            1 RES     
    8349 C5        -109.9884   -57.3257   184.5471 C5            1 RES     
    8350 C5        -111.3969   -57.8924   184.0770 C5            1 RES     
    8351 C5        -111.5970   -59.4140   183.4276 C5            1 RES     
    8352 C5        -111.2151   -59.9288   181.9036 C5            1 RES     
    8353 C5        -111.7252   -61.3770   181.0534 C5            1 RES     
    8354 C5        -111.1306   -62.9734   180.9650 C5            1 RES     
    8355 C5        -111.5696   -64.5691   180.2544 C5            1 RES     
    8356 C5        -111.3871   -65.4685   178.7271 C5            1 RES     
    8357 C5        -111.2745   -64.1688   177.7413 C5            1 RES     
    8358 C5        -112.4048   -63.0412   177.7330 C5            1 RES     
    8359 C5        -111.9644   -61.6195   177.1735 C5            1 RES     
    8360 C5        -113.1187   -60.5604   176.9943 C5            1 RES     
    8361 C5        -114.3277   -61.0800   176.1860 C5            1 RES     
    8362 C5        -113.9608   -61.6639   174.8002 C5            1 RES     
    8363 C5        -114.4655   -60.8822   173.5817 C5            1 RES     
    8364 C5        -113.9496   -59.4508   173.4831 C5            1 RES     
    8365 C5        -111.5855   -67.2995   178.0135 C5            1 RES     
    8366 C0        -112.4765   -69.0414   178.0715 C0            1 RES     
    8367 C5        -113.9088   -68.6155   178.4843 C5            1 RES     
    8368 C5        -114.0222   -67.4705   179.6030 C5            1 RES     
    8369 C5        -113.9368   -68.0129   181.0401 C5            1 RES     
    8370 C5        -112.7535   -68.9478   181.3813 C5            1 RES     
    8371 C5        -111.3457   -68.4033   181.0548 C5            1 RES     
    8372 C5        -110.2002   -69.1730   181.6993 C5            1 RES     
    8373 C5        -110.2510   -70.6676   181.3806 C5            1 RES     
    8374 C5        -109.2475   -71.4318   182.2380 C5            1 RES     
    8375 C5        -109.5389   -72.9233   182.1417 C5            1 RES     
    8376 C5        -108.7252   -73.7420   183.1176 C5            1 RES     
    8377 C5        -115.2802   -66.5673   179.3654 C5            1 RES     
    8378 C5        -115.4199   -65.1310   180.0011 C5            1 RES     
    8379 C5        -115.7501   -64.8995   181.5009 C5            1 RES     
    8380 C5        -117.0060   -65.6604   181.9449 C5            1 RES     
    8381 C5        -117.5479   -65.2163   183.3223 C5            1 RES     
    8382 C5        -118.5603   -66.2326   183.8952 C5            1 RES     
    8383 C5        -119.7880   -66.5384   183.0118 C5            1 RES     
    8384 C5        -120.7739   -65.3706   182.8218 C5            1 RES     
    8385 C5        -121.4302   -64.8571   184.1187 C5            1 RES     
    8386 C5        -122.2362   -65.9284   184.8586 C5            1 RES     
    8387 H6        -108.7501   -54.5818   187.6722 H6            1 RES     
    8388 H6        -110.3106   -53.7717   187.2734 H6            1 RES     
    8389 H6        -110.1601   -54.7820   188.7472 H6            1 RES     
    8390 H6        -109.8085   -56.8261   187.4012 H6            1 RES     
    8391 H6        -111.3978   -56.0735   186.9823 H6            1 RES     
    8392 H6        -110.3706   -55.1045   184.8731 H6            1 RES     
    8393 H6        -108.7869   -55.7106   185.4164 H6            1 RES     
    8394 H6        -109.4762   -58.0922   185.1603 H6            1 RES     
    8395 H6        -109.3979   -57.1570   183.6243 H6            1 RES     
    8396 H6        -111.8753   -57.1141   183.4367 H6            1 RES     
    8397 H6        -111.9873   -57.8820   185.0244 H6            1 RES     
    8398 H6        -112.7042   -59.5133   183.4741 H6            1 RES     
    8399 H6        -111.1697   -60.1104   184.1695 H6            1 RES     
    8400 H6        -111.6953   -59.0995   181.3266 H6            1 RES     
    8401 H6        -110.1272   -59.7640   181.7616 H6            1 RES     
    8402 H6        -111.6422   -60.9924   180.0157 H6            1 RES     
    8403 H6        -112.8151   -61.3917   181.2692 H6            1 RES     
    8404 H6        -110.0553   -62.8265   180.7345 H6            1 RES     
    8405 H6        -111.1881   -63.1933   182.0505 H6            1 RES     
    8406 H6        -112.6161   -64.6671   180.5589 H6            1 RES     
    8407 H6        -111.0018   -65.2105   180.9412 H6            1 RES     
    8408 H6        -110.2832   -65.5974   178.7898 H6            1 RES     
    8409 H6        -110.9698   -64.4293   176.7079 H6            1 RES     
    8410 H6        -110.4043   -63.5803   178.1358 H6            1 RES     
    8411 H6        -112.7809   -62.8260   178.7527 H6            1 RES     
    8412 H6        -113.2387   -63.4397   177.1346 H6            1 RES     
    8413 H6        -111.4442   -61.7354   176.2080 H6            1 RES     
    8414 H6        -111.2022   -61.1438   177.8338 H6            1 RES     
    8415 H6        -112.7197   -59.6412   176.5010 H6            1 RES     
    8416 H6        -113.5016   -60.2344   177.9891 H6            1 RES     
    8417 H6        -114.7739   -61.8855   176.8018 H6            1 RES     
    8418 H6        -115.1372   -60.3188   176.1001 H6            1 RES     
    8419 H6        -112.8770   -61.8345   174.6910 H6            1 RES     
    8420 H6        -114.4316   -62.6670   174.7338 H6            1 RES     
    8421 H6        -115.5756   -60.8674   173.5881 H6            1 RES     
    8422 H6        -114.1310   -61.4374   172.6772 H6            1 RES     
    8423 H6        -112.8403   -59.4276   173.4725 H6            1 RES     
    8424 H6        -114.3238   -59.0058   172.5351 H6            1 RES     
    8425 H6        -114.3301   -58.8390   174.3264 H6            1 RES     
    8426 H6        -110.5306   -67.6449   178.1068 H6            1 RES     
    8427 H6        -111.6003   -67.0755   176.9259 H6            1 RES     
    8428 H6        -114.3248   -68.2406   177.5295 H6            1 RES     
    8429 H6        -114.4883   -69.5068   178.7953 H6            1 RES     
    8430 H6        -113.2307   -66.7490   179.5236 H6            1 RES     
    8431 H6        -113.8888   -67.1479   181.7249 H6            1 RES     
    8432 H6        -114.8652   -68.5737   181.2585 H6            1 RES     
    8433 H6        -112.8173   -69.1365   182.4731 H6            1 RES     
    8434 H6        -112.9078   -69.9101   180.8496 H6            1 RES     
    8435 H6        -111.1613   -68.5021   180.0033 H6            1 RES     
    8436 H6        -111.2600   -67.3460   181.3526 H6            1 RES     
    8437 H6        -109.2282   -68.7535   181.3497 H6            1 RES     
    8438 H6        -110.2816   -69.0179   182.7932 H6            1 RES     
    8439 H6        -111.2523   -71.0449   181.6617 H6            1 RES     
    8440 H6        -110.0922   -70.8605   180.2948 H6            1 RES     
    8441 H6        -108.2042   -71.2023   181.9277 H6            1 RES     
    8442 H6        -109.3924   -71.1264   183.2953 H6            1 RES     
    8443 H6        -109.2897   -73.2522   181.1239 H6            1 RES     
    8444 H6        -110.6163   -73.1053   182.3692 H6            1 RES     
    8445 H6        -107.6475   -73.6453   182.8802 H6            1 RES     
    8446 H6        -109.0326   -74.8060   183.0281 H6            1 RES     
    8447 H6        -108.9257   -73.3973   184.1535 H6            1 RES     
    8448 H6        -116.2034   -67.1530   179.5230 H6            1 RES     
    8449 H6        -115.2238   -66.3154   178.2821 H6            1 RES     
    8450 H6        -114.5500   -64.5033   179.7304 H6            1 RES     
    8451 H6        -116.2708   -64.6611   179.4616 H6            1 RES     
    8452 H6        -114.8976   -65.1475   182.1669 H6            1 RES     
    8453 H6        -115.9389   -63.8051   181.6212 H6            1 RES     
    8454 H6        -116.7298   -66.7340   181.9752 H6            1 RES     
    8455 H6        -117.8162   -65.5042   181.2014 H6            1 RES     
    8456 H6        -118.0004   -64.2003   183.2490 H6            1 RES     
    8457 H6        -116.7125   -65.1565   184.0536 H6            1 RES     
    8458 H6        -118.8923   -65.9058   184.9033 H6            1 RES     
    8459 H6        -118.0109   -67.1885   184.0340 H6            1 RES     
    8460 H6        -120.3334   -67.3950   183.4577 H6            1 RES     
    8461 H6        -119.4459   -66.8850   182.0150 H6            1 RES     
    8462 H6        -120.2543   -64.5262   182.3220 H6            1 RES     
    8463 H6        -121.5826   -65.7159   182.1398 H6            1 RES     
    8464 H6        -120.6625   -64.4374   184.8006 H6            1 RES     
    8465 H6        -122.1255   -64.0334   183.8466 H6            1 RES     
    8466 H6        -123.0251   -66.3476   184.1983 H6            1 RES     
    8467 H6        -121.5805   -66.7489   185.2154 H6            1 RES     
    8468 H6        -122.7225   -65.4768   185.7488 H6            1 RES     
    8469 C0        -113.2825   -84.5003   174.8919 C0            1 RES     
    8470 C0        -112.9997   -83.9354   176.6303 C0            1 RES     
    8471 C0        -114.2310   -83.7297   177.2396 C0            1 RES     
    8472 S1        -114.1982   -82.9058   178.7468 S1            1 RES     
    8473 C0        -112.5814   -82.6062   178.9739 C0            1 RES     
    8474 C0        -112.0041   -83.2802   177.6963 C0            1 RES     
    8475 C0        -115.3299   -83.7004   176.2735 C0            1 RES     
    8476 C0        -114.4435   -83.4753   175.0593 C0            1 RES     
    8477 C0        -114.3441   -82.1509   174.7627 C0            1 RES     
    8478 C0        -115.1808   -81.3094   175.4920 C0            1 RES     
    8479 S1        -116.2747   -82.1581   176.5981 S1            1 RES     
    8480 H2        -110.9421   -83.1538   177.5236 H2            1 RES     
    8481 H2        -113.5466   -81.7328   174.1706 H2            1 RES     
    8482 N3        -113.2888   -80.2431   182.1153 N3            1 RES     
    8483 C0        -113.3583   -80.9912   181.0036 C0            1 RES     
    8484 C0        -112.2341   -81.6924   180.3581 C0            1 RES     
    8485 C0        -111.0129   -81.4170   181.1436 C0            1 RES     
    8486 N3        -109.7609   -81.8915   180.8498 N3            1 RES     
    8487 S1        -108.8122   -81.2926   182.0813 S1            1 RES     
    8488 N3        -109.8658   -80.4151   183.0032 N3            1 RES     
    8489 C0        -111.0235   -80.5885   182.3516 C0            1 RES     
    8490 C0        -112.1622   -79.9949   182.8384 C0            1 RES     
    8491 H4        -114.3410   -81.0362   180.5896 H4            1 RES     
    8492 C5        -121.3252   -96.6699   162.1079 C5            1 RES     
    8493 C5        -120.6336   -95.8825   163.2569 C5            1 RES     
    8494 C5        -119.3932   -95.0495   162.7947 C5            1 RES     
    8495 C5        -118.7842   -93.9587   163.8035 C5            1 RES     
    8496 C5        -117.9345   -94.3916   165.0750 C5            1 RES     
    8497 C5        -117.4917   -93.3296   166.2805 C5            1 RES     
    8498 C5        -116.2981   -92.1861   166.2421 C5            1 RES     
    8499 C5        -115.5488   -91.3091   167.5648 C5            1 RES     
    8500 C5        -115.9171   -89.8618   168.3892 C5            1 RES     
    8501 C5        -115.3439   -88.8940   169.7959 C5            1 RES     
    8502 C5        -114.1340   -87.6426   170.1767 C5            1 RES     
    8503 C5        -113.0702   -88.0264   168.9958 C5            1 RES     
    8504 C5        -112.4923   -89.5082   168.8576 C5            1 RES     
    8505 C5        -111.9201   -89.9008   167.4270 C5            1 RES     
    8506 C5        -111.1863   -91.2934   167.3354 C5            1 RES     
    8507 C5        -110.0885   -91.4961   168.4026 C5            1 RES     
    8508 C5        -109.0274   -90.3697   168.4432 C5            1 RES     
    8509 C5        -107.6069   -90.7631   168.0213 C5            1 RES     
    8510 C5        -107.4854   -91.2786   166.5915 C5            1 RES     
    8511 C5        -113.6787   -86.3606   171.6085 C5            1 RES     
    8512 C0        -113.6759   -85.8904   173.5087 C0            1 RES     
    8513 C5        -113.4841   -87.2894   174.1484 C5            1 RES     
    8514 C5        -114.3049   -88.4993   173.4866 C5            1 RES     
    8515 C5        -115.7423   -88.6236   174.0207 C5            1 RES     
    8516 C5        -116.6174   -87.3489   174.0190 C5            1 RES     
    8517 C5        -116.7351   -86.6113   172.6674 C5            1 RES     
    8518 C5        -117.8518   -85.5777   172.6014 C5            1 RES     
    8519 C5        -117.7631   -84.5517   173.7317 C5            1 RES     
    8520 C5        -119.0251   -83.6964   173.7781 C5            1 RES     
    8521 C5        -119.0556   -82.9181   175.0864 C5            1 RES     
    8522 C5        -120.3675   -82.2015   175.3099 C5            1 RES     
    8523 C5        -113.5035   -89.8428   173.5727 C5            1 RES     
    8524 C5        -113.8258   -91.0782   172.6470 C5            1 RES     
    8525 C5        -115.0577   -91.9985   172.8650 C5            1 RES     
    8526 C5        -115.1347   -92.5385   174.2988 C5            1 RES     
    8527 C5        -116.1467   -93.6931   174.4750 C5            1 RES     
    8528 C5        -116.4674   -93.9526   175.9636 C5            1 RES     
    8529 C5        -115.2617   -94.2755   176.8709 C5            1 RES     
    8530 C5        -114.5614   -95.6177   176.5880 C5            1 RES     
    8531 C5        -115.4481   -96.8648   176.7744 C5            1 RES     
    8532 C5        -116.0045   -97.0095   178.1937 C5            1 RES     
    8533 H6        -121.6978   -95.9883   161.3094 H6            1 RES     
    8534 H6        -120.6541   -97.4209   161.6393 H6            1 RES     
    8535 H6        -122.2185   -97.2186   162.4922 H6            1 RES     
    8536 H6        -121.4069   -95.1948   163.6581 H6            1 RES     
    8537 H6        -120.3431   -96.6035   164.0477 H6            1 RES     
    8538 H6        -118.6172   -95.7423   162.3976 H6            1 RES     
    8539 H6        -119.7719   -94.4755   161.9154 H6            1 RES     
    8540 H6        -119.6466   -93.3485   164.1351 H6            1 RES     
    8541 H6        -118.1174   -93.3242   163.1858 H6            1 RES     
    8542 H6        -117.0574   -94.9762   164.7097 H6            1 RES     
    8543 H6        -118.5974   -95.1480   165.5595 H6            1 RES     
    8544 H6        -117.1559   -94.0406   167.0676 H6            1 RES     
    8545 H6        -118.4322   -92.8688   166.6286 H6            1 RES     
    8546 H6        -115.4712   -92.8273   165.8469 H6            1 RES     
    8547 H6        -116.5291   -91.4947   165.4058 H6            1 RES     
    8548 H6        -114.5634   -91.1159   167.0924 H6            1 RES     
    8549 H6        -115.3628   -92.1236   168.2973 H6            1 RES     
    8550 H6        -116.0646   -89.1353   167.5637 H6            1 RES     
    8551 H6        -116.9312   -90.1590   168.7259 H6            1 RES     
    8552 H6        -115.2676   -89.6587   170.5749 H6            1 RES     
    8553 H6        -116.2753   -88.3517   170.0058 H6            1 RES     
    8554 H6        -114.6034   -86.8296   169.5786 H6            1 RES     
    8555 H6        -112.2639   -87.2757   168.8731 H6            1 RES     
    8556 H6        -113.6555   -87.9475   168.0415 H6            1 RES     
    8557 H6        -113.2673   -90.2742   169.0585 H6            1 RES     
    8558 H6        -111.7034   -89.6077   169.6192 H6            1 RES     
    8559 H6        -111.2315   -89.1191   167.0654 H6            1 RES     
    8560 H6        -112.7292   -89.9218   166.6600 H6            1 RES     
    8561 H6        -110.7355   -91.4210   166.3215 H6            1 RES     
    8562 H6        -111.9193   -92.1249   167.4533 H6            1 RES     
    8563 H6        -110.6184   -91.5173   169.3750 H6            1 RES     
    8564 H6        -109.6077   -92.4988   168.3291 H6            1 RES     
    8565 H6        -109.3373   -89.4812   167.8686 H6            1 RES     
    8566 H6        -108.9487   -90.0335   169.4982 H6            1 RES     
    8567 H6        -107.2161   -91.5335   168.7185 H6            1 RES     
    8568 H6        -106.9742   -89.8530   168.1196 H6            1 RES     
    8569 H6        -107.8664   -90.5312   165.8653 H6            1 RES     
    8570 H6        -106.4111   -91.4689   166.3756 H6            1 RES     
    8571 H6        -108.0369   -92.2336   166.4719 H6            1 RES     
    8572 H6        -114.1914   -85.4554   171.2101 H6            1 RES     
    8573 H6        -112.6364   -86.1145   171.3145 H6            1 RES     
    8574 H6        -112.3992   -87.4615   174.0116 H6            1 RES     
    8575 H6        -113.6983   -87.2361   175.2339 H6            1 RES     
    8576 H6        -114.4051   -88.3850   172.4235 H6            1 RES     
    8577 H6        -116.2619   -89.3877   173.4159 H6            1 RES     
    8578 H6        -115.6977   -88.9838   175.0658 H6            1 RES     
    8579 H6        -117.6303   -87.6725   174.3369 H6            1 RES     
    8580 H6        -116.2158   -86.6521   174.7844 H6            1 RES     
    8581 H6        -115.8451   -86.0384   172.4964 H6            1 RES     
    8582 H6        -116.8823   -87.3295   171.8451 H6            1 RES     
    8583 H6        -117.8121   -85.0505   171.6199 H6            1 RES     
    8584 H6        -118.8091   -86.1312   172.6692 H6            1 RES     
    8585 H6        -117.7230   -85.1004   174.6914 H6            1 RES     
    8586 H6        -116.8465   -83.9243   173.6442 H6            1 RES     
    8587 H6        -119.0753   -83.0147   172.9004 H6            1 RES     
    8588 H6        -119.9035   -84.3750   173.7675 H6            1 RES     
    8589 H6        -118.2542   -82.1679   175.0533 H6            1 RES     
    8590 H6        -118.9098   -83.6227   175.9397 H6            1 RES     
    8591 H6        -120.5171   -81.4391   174.5202 H6            1 RES     
    8592 H6        -120.3348   -81.7067   176.3042 H6            1 RES     
    8593 H6        -121.2006   -82.9350   175.3023 H6            1 RES     
    8594 H6        -113.4084   -90.1615   174.6261 H6            1 RES     
    8595 H6        -112.4864   -89.5674   173.2125 H6            1 RES     
    8596 H6        -113.7914   -90.7812   171.5818 H6            1 RES     
    8597 H6        -112.9554   -91.7594   172.7661 H6            1 RES     
    8598 H6        -116.0123   -91.5026   172.5916 H6            1 RES     
    8599 H6        -114.9380   -92.8629   172.1676 H6            1 RES     
    8600 H6        -115.4214   -91.6826   174.9430 H6            1 RES     
    8601 H6        -114.1374   -92.9192   174.6055 H6            1 RES     
    8602 H6        -115.7664   -94.6174   173.9818 H6            1 RES     
    8603 H6        -117.1094   -93.4272   173.9864 H6            1 RES     
    8604 H6        -117.2308   -94.7544   176.0501 H6            1 RES     
    8605 H6        -116.9336   -93.0238   176.3575 H6            1 RES     
    8606 H6        -115.6073   -94.2702   177.9247 H6            1 RES     
    8607 H6        -114.5153   -93.4583   176.7944 H6            1 RES     
    8608 H6        -114.1588   -95.6133   175.5532 H6            1 RES     
    8609 H6        -113.6964   -95.7030   177.2827 H6            1 RES     
    8610 H6        -116.2874   -96.8545   176.0492 H6            1 RES     
    8611 H6        -114.8268   -97.7610   176.5579 H6            1 RES     
    8612 H6        -115.1775   -97.0425   178.9347 H6            1 RES     
    8613 H6        -116.6893   -96.1734   178.4434 H6            1 RES     
    8614 H6        -116.5855   -97.9527   178.2692 H6            1 RES     
    8615 C0        -112.7659   -75.5126   185.3919 C0            1 RES     
    8616 C0        -114.3861   -76.3117   184.9946 C0            1 RES     
    8617 C0        -114.4799   -77.5061   185.6978 C0            1 RES     
    8618 S1        -115.7592   -78.5552   185.2345 S1            1 RES     
    8619 C0        -116.4985   -77.7223   184.0037 C0            1 RES     
    8620 C0        -115.6256   -76.4348   183.9920 C0            1 RES     
    8621 C0        -113.1936   -77.9225   186.2578 C0            1 RES     
    8622 C0        -112.3547   -77.0149   185.3729 C0            1 RES     
    8623 C0        -111.9184   -77.6753   184.2659 C0            1 RES     
    8624 C0        -112.1681   -79.0454   184.2485 C0            1 RES     
    8625 S1        -112.9268   -79.6614   185.7268 S1            1 RES     
    8626 H2        -115.8247   -75.7257   183.1976 H2            1 RES     
    8627 H2        -111.5930   -77.1778   183.3669 H2            1 RES     
    8628 N3        -118.7925   -80.8473   183.0417 N3            1 RES     
    8629 C0        -117.8538   -80.0157   183.5189 C0            1 RES     
    8630 C0        -117.7625   -78.5684   183.2566 C0            1 RES     
    8631 C0        -118.8801   -78.1948   182.3646 C0            1 RES     
    8632 N3        -119.1249   -76.9318   181.8914 N3            1 RES     
    8633 S1        -120.5089   -77.1119   180.9817 S1            1 RES     
    8634 N3        -120.8540   -78.7235   181.0988 N3            1 RES     
    8635 C0        -119.8672   -79.1671   181.8891 C0            1 RES     
    8636 C0        -119.8230   -80.4984   182.2231 C0            1 RES     
    8637 H4        -117.1293   -80.5077   184.1291 H4            1 RES     
    8638 C5         -99.9307   -68.6479   198.2117 C5            1 RES     
    8639 C5        -101.1190   -69.0926   197.3124 C5            1 RES     
    8640 C5        -101.0088   -68.6021   195.8314 C5            1 RES     
    8641 C5        -101.9931   -69.2438   194.7369 C5            1 RES     
    8642 C5        -103.5330   -68.8544   194.6800 C5            1 RES     
    8643 C5        -104.6439   -69.6634   193.7375 C5            1 RES     
    8644 C5        -104.8618   -69.5559   192.1020 C5            1 RES     
    8645 C5        -106.2175   -70.0814   191.1191 C5            1 RES     
    8646 C5        -106.6310   -71.5489   190.3539 C5            1 RES     
    8647 C5        -107.9880   -72.2828   189.4244 C5            1 RES     
    8648 C5        -108.5823   -72.3855   187.7479 C5            1 RES     
    8649 C5        -107.9281   -70.9842   187.2170 C5            1 RES     
    8650 C5        -108.2275   -69.6025   187.9588 C5            1 RES     
    8651 C5        -107.1695   -68.4403   187.7176 C5            1 RES     
    8652 C5        -107.5539   -67.0254   188.2977 C5            1 RES     
    8653 C5        -108.9590   -66.5372   187.8825 C5            1 RES     
    8654 C5        -109.2053   -66.5383   186.3543 C5            1 RES     
    8655 C5        -109.3796   -65.1646   185.6962 C5            1 RES     
    8656 C5        -108.1806   -64.2331   185.8359 C5            1 RES     
    8657 C5        -109.8737   -73.4077   186.6577 C5            1 RES     
    8658 C0        -111.5576   -74.3976   186.5307 C0            1 RES     
    8659 C5        -112.4251   -73.6165   187.5508 C5            1 RES     
    8660 C5        -111.7036   -73.1713   188.9135 C5            1 RES     
    8661 C5        -111.7041   -74.2705   189.9898 C5            1 RES     
    8662 C5        -111.2011   -75.6733   189.5779 C5            1 RES     
    8663 C5        -109.8020   -75.7256   188.9265 C5            1 RES     
    8664 C5        -109.1897   -77.1178   188.8442 C5            1 RES     
    8665 C5        -110.1107   -78.1186   188.1456 C5            1 RES     
    8666 C5        -109.5772   -79.5385   188.3053 C5            1 RES     
    8667 C5        -110.6573   -80.5293   187.8929 C5            1 RES     
    8668 C5        -110.2901   -81.9605   188.2116 C5            1 RES     
    8669 C5        -112.2686   -71.8062   189.4350 C5            1 RES     
    8670 C5        -111.4846   -70.9076   190.4669 C5            1 RES     
    8671 C5        -111.3855   -71.2479   191.9789 C5            1 RES     
    8672 C5        -112.7618   -71.4836   192.6143 C5            1 RES     
    8673 C5        -112.7373   -71.5103   194.1592 C5            1 RES     
    8674 C5        -114.0356   -72.1099   194.7432 C5            1 RES     
    8675 C5        -115.3495   -71.4134   194.3312 C5            1 RES     
    8676 C5        -115.5379   -69.9834   194.8709 C5            1 RES     
    8677 C5        -115.5812   -69.8697   196.4077 C5            1 RES     
    8678 C5        -116.7146   -70.6776   197.0461 C5            1 RES     
    8679 H6         -98.9597   -69.0412   197.8330 H6            1 RES     
    8680 H6         -99.8491   -67.5434   198.2976 H6            1 RES     
    8681 H6        -100.0498   -69.0523   199.2455 H6            1 RES     
    8682 H6        -101.1116   -70.2024   197.3314 H6            1 RES     
    8683 H6        -102.0596   -68.7278   197.7723 H6            1 RES     
    8684 H6        -101.0218   -67.4888   195.8150 H6            1 RES     
    8685 H6         -99.9771   -68.9021   195.5287 H6            1 RES     
    8686 H6        -101.9013   -70.3400   194.8632 H6            1 RES     
    8687 H6        -101.5653   -68.9630   193.7536 H6            1 RES     
    8688 H6        -103.5950   -67.7520   194.5208 H6            1 RES     
    8689 H6        -103.8575   -69.0067   195.7373 H6            1 RES     
    8690 H6        -105.5958   -69.2724   194.1605 H6            1 RES     
    8691 H6        -104.5620   -70.7246   194.0292 H6            1 RES     
    8692 H6        -104.8869   -68.4410   192.0141 H6            1 RES     
    8693 H6        -103.9048   -69.8448   191.6211 H6            1 RES     
    8694 H6        -106.1030   -69.3571   190.2861 H6            1 RES     
    8695 H6        -107.0812   -69.7074   191.7097 H6            1 RES     
    8696 H6        -105.7082   -71.8068   189.7944 H6            1 RES     
    8697 H6        -106.6257   -72.1773   191.2677 H6            1 RES     
    8698 H6        -108.8481   -72.0323   190.0528 H6            1 RES     
    8699 H6        -107.7696   -73.3387   189.6315 H6            1 RES     
    8700 H6        -107.7421   -73.0013   187.3555 H6            1 RES     
    8701 H6        -107.9893   -70.8625   186.1169 H6            1 RES     
    8702 H6        -106.8279   -71.0852   187.4134 H6            1 RES     
    8703 H6        -108.2519   -69.7218   189.0601 H6            1 RES     
    8704 H6        -109.2254   -69.2788   187.6246 H6            1 RES     
    8705 H6        -106.9637   -68.3312   186.6396 H6            1 RES     
    8706 H6        -106.1774   -68.6997   188.1555 H6            1 RES     
    8707 H6        -106.7976   -66.2660   187.9833 H6            1 RES     
    8708 H6        -107.5264   -67.0444   189.4119 H6            1 RES     
    8709 H6        -109.6711   -67.2416   188.3555 H6            1 RES     
    8710 H6        -109.2120   -65.5482   188.3297 H6            1 RES     
    8711 H6        -108.4322   -67.1015   185.8057 H6            1 RES     
    8712 H6        -110.1564   -67.0827   186.1775 H6            1 RES     
    8713 H6        -110.2770   -64.6657   186.1184 H6            1 RES     
    8714 H6        -109.5592   -65.3431   184.6126 H6            1 RES     
    8715 H6        -107.2634   -64.7002   185.4214 H6            1 RES     
    8716 H6        -108.3916   -63.2997   185.2694 H6            1 RES     
    8717 H6        -108.0170   -63.9631   186.8992 H6            1 RES     
    8718 H6        -109.1886   -74.1843   186.2473 H6            1 RES     
    8719 H6        -109.9360   -72.7432   185.7700 H6            1 RES     
    8720 H6        -112.7102   -72.7163   186.9734 H6            1 RES     
    8721 H6        -113.3426   -74.1935   187.7797 H6            1 RES     
    8722 H6        -110.6701   -72.9233   188.7603 H6            1 RES     
    8723 H6        -111.0756   -73.9218   190.8283 H6            1 RES     
    8724 H6        -112.7382   -74.3945   190.3632 H6            1 RES     
    8725 H6        -111.1828   -76.2775   190.5088 H6            1 RES     
    8726 H6        -111.9459   -76.1189   188.8855 H6            1 RES     
    8727 H6        -109.8748   -75.4167   187.9024 H6            1 RES     
    8728 H6        -109.0982   -75.0718   189.4660 H6            1 RES     
    8729 H6        -108.2194   -77.0649   188.2978 H6            1 RES     
    8730 H6        -108.9947   -77.4472   189.8839 H6            1 RES     
    8731 H6        -111.0925   -78.0953   188.6549 H6            1 RES     
    8732 H6        -110.2620   -77.8565   187.0733 H6            1 RES     
    8733 H6        -108.6477   -79.6825   187.7114 H6            1 RES     
    8734 H6        -109.3567   -79.7064   189.3802 H6            1 RES     
    8735 H6        -110.7994   -80.4434   186.8072 H6            1 RES     
    8736 H6        -111.6017   -80.2965   188.4403 H6            1 RES     
    8737 H6        -109.3943   -82.2556   187.6304 H6            1 RES     
    8738 H6        -111.1453   -82.6143   187.9360 H6            1 RES     
    8739 H6        -110.0966   -82.0637   189.2997 H6            1 RES     
    8740 H6        -113.3220   -71.9250   189.7457 H6            1 RES     
    8741 H6        -112.2566   -71.1532   188.5329 H6            1 RES     
    8742 H6        -110.4696   -70.6823   190.0886 H6            1 RES     
    8743 H6        -112.0057   -69.9258   190.4446 H6            1 RES     
    8744 H6        -110.7198   -72.1137   192.1769 H6            1 RES     
    8745 H6        -110.9137   -70.3650   192.4748 H6            1 RES     
    8746 H6        -113.1264   -72.4558   192.2248 H6            1 RES     
    8747 H6        -113.4561   -70.6736   192.3055 H6            1 RES     
    8748 H6        -112.5554   -70.4861   194.5595 H6            1 RES     
    8749 H6        -111.9046   -72.1577   194.5109 H6            1 RES     
    8750 H6        -113.9639   -72.1567   195.8504 H6            1 RES     
    8751 H6        -114.0945   -73.1592   194.3822 H6            1 RES     
    8752 H6        -116.1982   -72.0383   194.6764 H6            1 RES     
    8753 H6        -115.4221   -71.3916   193.2243 H6            1 RES     
    8754 H6        -114.7256   -69.3326   194.4843 H6            1 RES     
    8755 H6        -116.4991   -69.5922   194.4693 H6            1 RES     
    8756 H6        -114.6122   -70.1848   196.8462 H6            1 RES     
    8757 H6        -115.7362   -68.7998   196.6667 H6            1 RES     
    8758 H6        -117.6972   -70.3623   196.6346 H6            1 RES     
    8759 H6        -116.5767   -71.7651   196.8773 H6            1 RES     
    8760 H6        -116.7188   -70.5065   198.1432 H6            1 RES     
    8761 C0        -121.2946   -84.6764   179.5111 C0            1 RES     
    8762 C0        -120.4717   -85.1337   181.1033 C0            1 RES     
    8763 C0        -121.2656   -84.7004   182.1576 C0            1 RES     
    8764 S1        -120.5403   -84.7426   183.7145 S1            1 RES     
    8765 C0        -119.0174   -85.3242   183.4017 C0            1 RES     
    8766 C0        -119.1244   -85.5366   181.8645 C0            1 RES     
    8767 C0        -122.3018   -83.7628   181.7228 C0            1 RES     
    8768 C0        -121.6478   -83.4392   180.3893 C0            1 RES     
    8769 C0        -120.8801   -82.3191   180.4780 C0            1 RES     
    8770 C0        -120.9801   -81.6179   181.6772 C0            1 RES     
    8771 S1        -122.1665   -82.2878   182.8103 S1            1 RES     
    8772 H2        -118.2147   -85.8303   181.3548 H2            1 RES     
    8773 H2        -120.0919   -82.0823   179.7821 H2            1 RES     
    8774 N3        -117.7815   -84.5663   187.1235 N3            1 RES     
    8775 C0        -118.4312   -84.6244   185.9509 C0            1 RES     
    8776 C0        -118.0053   -85.3805   184.7597 C0            1 RES     
    8777 C0        -116.7293   -86.0543   185.0790 C0            1 RES     
    8778 N3        -116.0169   -86.8465   184.2165 N3            1 RES     
    8779 S1        -114.7126   -87.3462   185.1245 S1            1 RES     
    8780 N3        -114.9388   -86.6067   186.5847 N3            1 RES     
    8781 C0        -116.0850   -85.9409   186.3896 C0            1 RES     
    8782 C0        -116.6078   -85.1917   187.4150 C0            1 RES     
    8783 H4        -119.3252   -84.0415   185.9379 H4            1 RES     
    8784 C5        -136.6590   -84.9269   167.6753 C5            1 RES     
    8785 C5        -135.4733   -85.1294   168.6611 C5            1 RES     
    8786 C5        -134.0727   -84.8225   168.0365 C5            1 RES     
    8787 C5        -132.8089   -84.6897   169.0182 C5            1 RES     
    8788 C5        -132.1510   -85.9675   169.6969 C5            1 RES     
    8789 C5        -131.0073   -85.8712   170.9051 C5            1 RES     
    8790 C5        -129.4048   -85.4901   170.7622 C5            1 RES     
    8791 C5        -128.0946   -85.7254   171.9058 C5            1 RES     
    8792 C5        -127.4610   -84.8012   173.1921 C5            1 RES     
    8793 C5        -126.2308   -84.9253   174.5017 C5            1 RES     
    8794 C5        -124.4879   -84.6536   174.7536 C5            1 RES     
    8795 C5        -124.0212   -84.8977   173.2057 C5            1 RES     
    8796 C5        -124.3927   -86.2464   172.4364 C5            1 RES     
    8797 C5        -124.3725   -86.1693   170.8483 C5            1 RES     
    8798 C5        -124.5597   -87.5380   170.0882 C5            1 RES     
    8799 C5        -123.6043   -88.6551   170.5619 C5            1 RES     
    8800 C5        -122.1068   -88.2639   170.5327 C5            1 RES     
    8801 C5        -121.2324   -89.0103   169.5185 C5            1 RES     
    8802 C5        -121.6482   -88.8303   168.0626 C5            1 RES     
    8803 C5        -123.1758   -84.4920   176.2210 C5            1 RES     
    8804 C0        -122.6082   -84.9713   178.0320 C0            1 RES     
    8805 C5        -123.1244   -86.4306   178.1158 C5            1 RES     
    8806 C5        -124.5715   -86.7169   177.4840 C5            1 RES     
    8807 C5        -125.7287   -86.4163   178.4520 C5            1 RES     
    8808 C5        -125.7372   -85.0357   179.1480 C5            1 RES     
    8809 C5        -125.6412   -83.8081   178.2160 C5            1 RES     
    8810 C5        -125.9909   -82.4800   178.8745 C5            1 RES     
    8811 C5        -125.1685   -82.2219   180.1374 C5            1 RES     
    8812 C5        -125.7177   -81.0186   180.8969 C5            1 RES     
    8813 C5        -125.1014   -80.9801   182.2887 C5            1 RES     
    8814 C5        -125.7398   -79.9415   183.1822 C5            1 RES     
    8815 C5        -124.6480   -88.1562   176.8696 C5            1 RES     
    8816 C5        -125.7444   -88.5652   175.8126 C5            1 RES     
    8817 C5        -127.2256   -88.8353   176.1932 C5            1 RES     
    8818 C5        -127.3579   -89.8594   177.3277 C5            1 RES     
    8819 C5        -128.7962   -90.3906   177.5215 C5            1 RES     
    8820 C5        -128.9632   -91.1128   178.8767 C5            1 RES     
    8821 C5        -128.0120   -92.3002   179.1342 C5            1 RES     
    8822 C5        -128.2293   -93.5298   178.2327 C5            1 RES     
    8823 C5        -129.6149   -94.1931   178.3619 C5            1 RES     
    8824 C5        -129.9219   -94.6909   179.7771 C5            1 RES     
    8825 H6        -136.7135   -83.8762   167.3090 H6            1 RES     
    8826 H6        -136.6022   -85.6003   166.7936 H6            1 RES     
    8827 H6        -137.6310   -85.1308   168.1853 H6            1 RES     
    8828 H6        -135.6594   -84.4302   169.5028 H6            1 RES     
    8829 H6        -135.5089   -86.1710   169.0396 H6            1 RES     
    8830 H6        -133.8866   -85.5287   167.1960 H6            1 RES     
    8831 H6        -134.2049   -83.8171   167.5699 H6            1 RES     
    8832 H6        -133.1219   -83.9806   169.8090 H6            1 RES     
    8833 H6        -132.0117   -84.2152   168.4115 H6            1 RES     
    8834 H6        -131.8172   -86.6481   168.8784 H6            1 RES     
    8835 H6        -133.0339   -86.4796   170.1490 H6            1 RES     
    8836 H6        -131.0010   -86.9235   171.2663 H6            1 RES     
    8837 H6        -131.4642   -85.2514   171.6957 H6            1 RES     
    8838 H6        -129.1482   -86.1794   169.9194 H6            1 RES     
    8839 H6        -129.3444   -84.4776   170.3129 H6            1 RES     
    8840 H6        -127.2584   -85.8002   171.1800 H6            1 RES     
    8841 H6        -128.2767   -86.7679   172.2443 H6            1 RES     
    8842 H6        -127.3112   -83.8030   172.7315 H6            1 RES     
    8843 H6        -128.3999   -84.7346   173.7785 H6            1 RES     
    8844 H6        -126.4674   -85.9012   174.9365 H6            1 RES     
    8845 H6        -126.6573   -84.1846   175.1910 H6            1 RES     
    8846 H6        -124.5166   -83.5469   174.6383 H6            1 RES     
    8847 H6        -122.9662   -84.6142   173.0175 H6            1 RES     
    8848 H6        -124.6085   -84.1536   172.6051 H6            1 RES     
    8849 H6        -125.4181   -86.5903   172.6774 H6            1 RES     
    8850 H6        -123.6814   -87.0108   172.7855 H6            1 RES     
    8851 H6        -123.4347   -85.7034   170.5023 H6            1 RES     
    8852 H6        -125.1679   -85.4874   170.4667 H6            1 RES     
    8853 H6        -124.4249   -87.3859   168.9899 H6            1 RES     
    8854 H6        -125.6004   -87.9146   170.2215 H6            1 RES     
    8855 H6        -123.8929   -88.8698   171.6095 H6            1 RES     
    8856 H6        -123.7792   -89.6163   170.0256 H6            1 RES     
    8857 H6        -121.9596   -87.1792   170.4011 H6            1 RES     
    8858 H6        -121.6870   -88.5055   171.5316 H6            1 RES     
    8859 H6        -121.2284   -90.0933   169.7628 H6            1 RES     
    8860 H6        -120.1954   -88.6242   169.6361 H6            1 RES     
    8861 H6        -121.6615   -87.7568   167.7825 H6            1 RES     
    8862 H6        -120.9109   -89.3572   167.4178 H6            1 RES     
    8863 H6        -122.6471   -89.2779   167.8830 H6            1 RES     
    8864 H6        -123.1567   -83.3830   176.3247 H6            1 RES     
    8865 H6        -122.2353   -84.6298   175.6467 H6            1 RES     
    8866 H6        -122.3557   -86.9831   177.5422 H6            1 RES     
    8867 H6        -123.0957   -86.7769   179.1676 H6            1 RES     
    8868 H6        -124.7605   -86.1111   176.6176 H6            1 RES     
    8869 H6        -126.6737   -86.5135   177.8887 H6            1 RES     
    8870 H6        -125.7244   -87.1813   179.2513 H6            1 RES     
    8871 H6        -126.6929   -84.9818   179.7098 H6            1 RES     
    8872 H6        -124.9002   -85.0101   179.8770 H6            1 RES     
    8873 H6        -124.6242   -83.6786   177.9021 H6            1 RES     
    8874 H6        -126.2914   -83.9374   177.3360 H6            1 RES     
    8875 H6        -125.8237   -81.6504   178.1487 H6            1 RES     
    8876 H6        -127.0687   -82.5187   179.1280 H6            1 RES     
    8877 H6        -125.2860   -83.0939   180.8080 H6            1 RES     
    8878 H6        -124.0862   -82.0989   179.9033 H6            1 RES     
    8879 H6        -125.5216   -80.0751   180.3411 H6            1 RES     
    8880 H6        -126.8130   -81.1548   181.0155 H6            1 RES     
    8881 H6        -124.0363   -80.7346   182.1810 H6            1 RES     
    8882 H6        -125.2360   -81.9728   182.7806 H6            1 RES     
    8883 H6        -125.5661   -78.9302   182.7644 H6            1 RES     
    8884 H6        -125.2793   -80.0122   184.1909 H6            1 RES     
    8885 H6        -126.8280   -80.1418   183.2705 H6            1 RES     
    8886 H6        -124.5780   -88.9147   177.6696 H6            1 RES     
    8887 H6        -123.7223   -88.2307   176.2549 H6            1 RES     
    8888 H6        -125.7225   -87.8755   174.9478 H6            1 RES     
    8889 H6        -125.3919   -89.5335   175.3953 H6            1 RES     
    8890 H6        -127.7743   -87.9057   176.4516 H6            1 RES     
    8891 H6        -127.7189   -89.2519   175.2816 H6            1 RES     
    8892 H6        -127.0143   -89.3521   178.2520 H6            1 RES     
    8893 H6        -126.7052   -90.7329   177.1165 H6            1 RES     
    8894 H6        -129.0770   -91.0597   176.6755 H6            1 RES     
    8895 H6        -129.5134   -89.5410   177.5261 H6            1 RES     
    8896 H6        -130.0173   -91.4390   179.0021 H6            1 RES     
    8897 H6        -128.7660   -90.3581   179.6683 H6            1 RES     
    8898 H6        -128.1222   -92.6119   180.1929 H6            1 RES     
    8899 H6        -126.9616   -91.9590   179.0285 H6            1 RES     
    8900 H6        -128.0640   -93.2443   177.1726 H6            1 RES     
    8901 H6        -127.4587   -94.2871   178.4989 H6            1 RES     
    8902 H6        -130.4109   -93.4920   178.0374 H6            1 RES     
    8903 H6        -129.6389   -95.0697   177.6786 H6            1 RES     
    8904 H6        -129.1459   -95.4112   180.1135 H6            1 RES     
    8905 H6        -129.9777   -93.8478   180.4958 H6            1 RES     
    8906 H6        -130.9071   -95.2029   179.7839 H6            1 RES     
    8907 C0        -114.2070   -82.5667   191.1992 C0            1 RES     
    8908 C0        -116.0368   -82.2974   191.2172 C0            1 RES     
    8909 C0        -116.6627   -83.4993   191.5228 C0            1 RES     
    8910 S1        -118.3633   -83.5461   191.2831 S1            1 RES     
    8911 C0        -118.7029   -82.0234   190.7162 C0            1 RES     
    8912 C0        -117.2782   -81.4003   190.7579 C0            1 RES     
    8913 C0        -115.7531   -84.6408   191.4171 C0            1 RES     
    8914 C0        -114.7068   -83.9107   190.5908 C0            1 RES     
    8915 C0        -114.8941   -84.1260   189.2602 C0            1 RES     
    8916 C0        -115.8602   -85.0758   188.9374 C0            1 RES     
    8917 S1        -116.5842   -85.8779   190.3420 S1            1 RES     
    8918 H2        -117.1751   -80.4065   190.3389 H2            1 RES     
    8919 H2        -114.4967   -83.4825   188.4924 H2            1 RES     
    8920 N3        -122.4629   -83.0181   189.8072 N3            1 RES     
    8921 C0        -121.1588   -82.9967   190.1222 C0            1 RES     
    8922 C0        -120.3240   -81.7924   190.2800 C0            1 RES     
    8923 C0        -121.1728   -80.6112   190.0180 C0            1 RES     
    8924 N3        -120.7485   -79.3085   190.0608 N3            1 RES     
    8925 S1        -122.1246   -78.4333   189.7204 S1            1 RES     
    8926 N3        -123.2809   -79.5889   189.4809 N3            1 RES     
    8927 C0        -122.5941   -80.7217   189.6813 C0            1 RES     
    8928 C0        -123.2424   -81.9273   189.5703 C0            1 RES     
    8929 H4        -120.7419   -83.9713   190.2471 H4            1 RES     
    8930 C5         -97.8631   -88.5832   199.7370 C5            1 RES     
    8931 C5         -99.2243   -88.0053   199.2558 C5            1 RES     
    8932 C5         -99.1000   -87.0134   198.0529 C5            1 RES     
    8933 C5        -100.4351   -86.5924   197.2663 C5            1 RES     
    8934 C5        -101.4860   -85.5835   197.9018 C5            1 RES     
    8935 C5        -102.9929   -85.3044   197.2473 C5            1 RES     
    8936 C5        -103.3736   -84.3975   195.9182 C5            1 RES     
    8937 C5        -104.9297   -83.7715   195.4019 C5            1 RES     
    8938 C5        -106.2035   -84.3925   194.4523 C5            1 RES     
    8939 C5        -107.8677   -83.9520   193.9226 C5            1 RES     
    8940 C5        -108.6789   -83.0244   192.6356 C5            1 RES     
    8941 C5        -107.4530   -81.9853   192.3343 C5            1 RES     
    8942 C5        -106.8127   -81.1059   193.5029 C5            1 RES     
    8943 C5        -105.3431   -80.5602   193.2370 C5            1 RES     
    8944 C5        -104.7798   -79.5456   194.3044 C5            1 RES     
    8945 C5        -105.7233   -78.3599   194.6029 C5            1 RES     
    8946 C5        -106.1701   -77.5728   193.3471 C5            1 RES     
    8947 C5        -105.6566   -76.1328   193.2333 C5            1 RES     
    8948 C5        -104.1386   -75.9984   193.1833 C5            1 RES     
    8949 C5        -110.4750   -82.7662   191.8557 C5            1 RES     
    8950 C0        -112.4194   -82.7375   192.0800 C0            1 RES     
    8951 C5        -112.5314   -82.1990   193.5294 C5            1 RES     
    8952 C5        -111.4768   -82.7763   194.5924 C5            1 RES     
    8953 C5        -111.9139   -84.1111   195.2200 C5            1 RES     
    8954 C5        -112.3467   -85.2435   194.2605 C5            1 RES     
    8955 C5        -111.3374   -85.6127   193.1514 C5            1 RES     
    8956 C5        -111.6222   -86.9316   192.4448 C5            1 RES     
    8957 C5        -113.0412   -86.9943   191.8787 C5            1 RES     
    8958 C5        -113.3669   -88.4075   191.4066 C5            1 RES     
    8959 C5        -114.8644   -88.5194   191.1546 C5            1 RES     
    8960 C5        -115.3067   -89.9386   190.8810 C5            1 RES     
    8961 C5        -111.0979   -81.6947   195.6607 C5            1 RES     
    8962 C5        -109.7941   -81.7992   196.5415 C5            1 RES     
    8963 C5        -109.6592   -82.7803   197.7379 C5            1 RES     
    8964 C5        -110.8120   -82.6385   198.7401 C5            1 RES     
    8965 C5        -110.5591   -83.3568   200.0848 C5            1 RES     
    8966 C5        -111.8581   -83.5102   200.9064 C5            1 RES     
    8967 C5        -112.6112   -82.2040   201.2347 C5            1 RES     
    8968 C5        -111.8859   -81.2462   202.1982 C5            1 RES     
    8969 C5        -111.6118   -81.8215   203.6018 C5            1 RES     
    8970 C5        -112.8829   -82.2343   204.3494 C5            1 RES     
    8971 H6         -97.3488   -89.1503   198.9278 H6            1 RES     
    8972 H6         -97.1704   -87.7967   200.1051 H6            1 RES     
    8973 H6         -98.0188   -89.3053   200.5743 H6            1 RES     
    8974 H6         -99.8304   -88.8820   198.9456 H6            1 RES     
    8975 H6         -99.7166   -87.5100   200.1170 H6            1 RES     
    8976 H6         -98.4961   -86.1328   198.3686 H6            1 RES     
    8977 H6         -98.4722   -87.5683   197.3154 H6            1 RES     
    8978 H6        -100.9475   -87.5434   197.0233 H6            1 RES     
    8979 H6        -100.0877   -86.1254   196.3229 H6            1 RES     
    8980 H6        -100.9512   -84.6262   198.1066 H6            1 RES     
    8981 H6        -101.6659   -86.0288   198.9096 H6            1 RES     
    8982 H6        -103.4858   -84.7673   198.0878 H6            1 RES     
    8983 H6        -103.4674   -86.2973   197.1639 H6            1 RES     
    8984 H6        -102.7902   -83.4785   196.1758 H6            1 RES     
    8985 H6        -102.8292   -84.8316   195.0545 H6            1 RES     
    8986 H6        -104.5683   -82.8873   194.8368 H6            1 RES     
    8987 H6        -105.3331   -83.3610   196.3523 H6            1 RES     
    8988 H6        -105.6826   -84.7523   193.5411 H6            1 RES     
    8989 H6        -106.4010   -85.2907   195.0720 H6            1 RES     
    8990 H6        -108.3306   -83.6562   194.8690 H6            1 RES     
    8991 H6        -108.2414   -84.9634   193.7155 H6            1 RES     
    8992 H6        -108.3970   -83.7010   191.7980 H6            1 RES     
    8993 H6        -107.6119   -81.3744   191.4230 H6            1 RES     
    8994 H6        -106.5789   -82.6372   192.0693 H6            1 RES     
    8995 H6        -106.7221   -81.6776   194.4477 H6            1 RES     
    8996 H6        -107.5019   -80.2644   193.6735 H6            1 RES     
    8997 H6        -105.2875   -80.0870   192.2424 H6            1 RES     
    8998 H6        -104.6064   -81.3951   193.1787 H6            1 RES     
    8999 H6        -103.7916   -79.1480   193.9684 H6            1 RES     
    9000 H6        -104.5891   -80.0677   195.2707 H6            1 RES     
    9001 H6        -106.6195   -78.8046   195.0784 H6            1 RES     
    9002 H6        -105.3100   -77.6762   195.3799 H6            1 RES     
    9003 H6        -105.9389   -78.1093   192.4121 H6            1 RES     
    9004 H6        -107.2771   -77.4984   193.3855 H6            1 RES     
    9005 H6        -106.0453   -75.5352   194.0843 H6            1 RES     
    9006 H6        -106.0760   -75.7109   192.2928 H6            1 RES     
    9007 H6        -103.7150   -76.5833   192.3409 H6            1 RES     
    9008 H6        -103.8845   -74.9259   193.0351 H6            1 RES     
    9009 H6        -103.6848   -76.3328   194.1386 H6            1 RES     
    9010 H6        -110.4118   -83.4916   191.0127 H6            1 RES     
    9011 H6        -110.3000   -81.8263   191.2907 H6            1 RES     
    9012 H6        -112.3578   -81.1148   193.3893 H6            1 RES     
    9013 H6        -113.5638   -82.3452   193.9032 H6            1 RES     
    9014 H6        -110.5198   -82.9714   194.1461 H6            1 RES     
    9015 H6        -111.0728   -84.4897   195.8275 H6            1 RES     
    9016 H6        -112.7673   -83.9171   195.8969 H6            1 RES     
    9017 H6        -112.5173   -86.1362   194.8975 H6            1 RES     
    9018 H6        -113.3129   -84.9541   193.7966 H6            1 RES     
    9019 H6        -111.3899   -84.8847   192.3662 H6            1 RES     
    9020 H6        -110.3137   -85.6538   193.5567 H6            1 RES     
    9021 H6        -110.8880   -87.0760   191.6184 H6            1 RES     
    9022 H6        -111.4788   -87.7365   193.1925 H6            1 RES     
    9023 H6        -113.7485   -86.7689   192.6989 H6            1 RES     
    9024 H6        -113.1915   -86.2466   191.0665 H6            1 RES     
    9025 H6        -112.7828   -88.6663   190.4958 H6            1 RES     
    9026 H6        -113.1075   -89.1135   192.2229 H6            1 RES     
    9027 H6        -115.1069   -87.9071   190.2757 H6            1 RES     
    9028 H6        -115.4188   -88.1641   192.0558 H6            1 RES     
    9029 H6        -114.8319   -90.3059   189.9499 H6            1 RES     
    9030 H6        -116.4117   -89.9480   190.7647 H6            1 RES     
    9031 H6        -115.0314   -90.5881   191.7380 H6            1 RES     
    9032 H6        -111.9743   -81.4601   196.2910 H6            1 RES     
    9033 H6        -110.8709   -80.7902   195.0520 H6            1 RES     
    9034 H6        -108.9008   -81.9038   195.8971 H6            1 RES     
    9035 H6        -109.6790   -80.7940   197.0023 H6            1 RES     
    9036 H6        -109.5637   -83.8371   197.4122 H6            1 RES     
    9037 H6        -108.7051   -82.5210   198.2577 H6            1 RES     
    9038 H6        -111.7112   -83.0620   198.2482 H6            1 RES     
    9039 H6        -110.9797   -81.5633   198.9625 H6            1 RES     
    9040 H6        -109.7787   -82.8168   200.6692 H6            1 RES     
    9041 H6        -110.1814   -84.3855   199.8964 H6            1 RES     
    9042 H6        -111.6479   -84.0705   201.8419 H6            1 RES     
    9043 H6        -112.5458   -84.1416   200.3035 H6            1 RES     
    9044 H6        -113.5954   -82.4696   201.6715 H6            1 RES     
    9045 H6        -112.8359   -81.6630   200.2925 H6            1 RES     
    9046 H6        -110.9238   -80.9259   201.7459 H6            1 RES     
    9047 H6        -112.5185   -80.3383   202.3154 H6            1 RES     
    9048 H6        -110.9248   -82.6899   203.5364 H6            1 RES     
    9049 H6        -111.1038   -81.0343   204.2003 H6            1 RES     
    9050 H6        -113.5767   -81.3717   204.4437 H6            1 RES     
    9051 H6        -113.4002   -83.0678   203.8316 H6            1 RES     
    9052 H6        -112.6155   -82.5867   205.3678 H6            1 RES     
    9053 C0        -127.1950   -83.3281   186.5060 C0            1 RES     
    9054 C0        -126.5211   -84.7556   187.4700 C0            1 RES     
    9055 C0        -126.7603   -84.5358   188.8206 C0            1 RES     
    9056 S1        -125.9416   -85.5810   189.9111 S1            1 RES     
    9057 C0        -125.0703   -86.5679   188.9000 C0            1 RES     
    9058 C0        -125.5220   -86.0029   187.5229 C0            1 RES     
    9059 C0        -127.1566   -83.1543   189.0961 C0            1 RES     
    9060 C0        -126.6569   -82.5982   187.7726 C0            1 RES     
    9061 C0        -125.3948   -82.1037   187.8929 C0            1 RES     
    9062 C0        -124.8955   -82.0461   189.1918 C0            1 RES     
    9063 S1        -126.0541   -82.5478   190.4353 S1            1 RES     
    9064 H2        -125.0235   -86.4071   186.6500 H2            1 RES     
    9065 H2        -124.7315   -81.9579   187.0561 H2            1 RES     
    9066 N3        -123.0440   -88.1772   191.9426 N3            1 RES     
    9067 C0        -123.7949   -87.4144   191.1335 C0            1 RES     
    9068 C0        -124.0572   -87.6624   189.7046 C0            1 RES     
    9069 C0        -123.3373   -88.8930   189.3152 C0            1 RES     
    9070 N3        -123.3329   -89.4417   188.0591 N3            1 RES     
    9071 S1        -122.3990   -90.8107   188.2290 S1            1 RES     
    9072 N3        -121.9397   -90.7834   189.8160 N3            1 RES     
    9073 C0        -122.5380   -89.6716   190.2642 C0            1 RES     
    9074 C0        -122.3853   -89.3125   191.5809 C0            1 RES     
    9075 H4        -124.2040   -86.5595   191.6243 H4            1 RES     
    9076 C5        -141.7805   -71.4770   181.7070 C5            1 RES     
    9077 C5        -140.7663   -72.5966   182.0764 C5            1 RES     
    9078 C5        -139.5525   -72.6985   181.0955 C5            1 RES     
    9079 C5        -138.2893   -73.5895   181.5302 C5            1 RES     
    9080 C5        -138.3513   -75.1775   181.5106 C5            1 RES     
    9081 C5        -137.1701   -76.1446   182.1789 C5            1 RES     
    9082 C5        -135.6730   -76.4918   181.5692 C5            1 RES     
    9083 C5        -134.5500   -77.7622   182.0219 C5            1 RES     
    9084 C5        -133.3139   -77.8934   183.1902 C5            1 RES     
    9085 C5        -132.1679   -79.1155   183.8513 C5            1 RES     
    9086 C5        -130.5535   -79.7855   183.5055 C5            1 RES     
    9087 C5        -130.5558   -79.4938   181.8967 C5            1 RES     
    9088 C5        -131.7302   -80.0390   180.9626 C5            1 RES     
    9089 C5        -131.9256   -79.2820   179.5780 C5            1 RES     
    9090 C5        -132.9591   -79.9282   178.5777 C5            1 RES     
    9091 C5        -132.7220   -81.4313   178.3140 C5            1 RES     
    9092 C5        -131.2869   -81.7749   177.8465 C5            1 RES     
    9093 C5        -131.1491   -82.2920   176.4098 C5            1 RES     
    9094 C5        -131.6224   -81.3210   175.3337 C5            1 RES     
    9095 C5        -129.1569   -80.8912   184.3588 C5            1 RES     
    9096 C0        -128.6685   -82.3203   185.6040 C0            1 RES     
    9097 C5        -129.8856   -83.2670   185.4432 C5            1 RES     
    9098 C5        -131.3276   -82.5701   185.3401 C5            1 RES     
    9099 C5        -131.9508   -82.2550   186.7108 C5            1 RES     
    9100 C5        -131.0808   -81.4846   187.7307 C5            1 RES     
    9101 C5        -130.4714   -80.1561   187.2323 C5            1 RES     
    9102 C5        -129.9153   -79.2592   188.3306 C5            1 RES     
    9103 C5        -128.8980   -79.9826   189.2137 C5            1 RES     
    9104 C5        -128.5578   -79.1397   190.4385 C5            1 RES     
    9105 C5        -127.8099   -80.0005   191.4475 C5            1 RES     
    9106 C5        -127.6123   -79.3062   192.7755 C5            1 RES     
    9107 C5        -132.2863   -83.3850   184.4065 C5            1 RES     
    9108 C5        -133.5780   -82.7498   183.7626 C5            1 RES     
    9109 C5        -134.8764   -82.4752   184.5692 C5            1 RES     
    9110 C5        -135.3702   -83.7192   185.3190 C5            1 RES     
    9111 C5        -136.8082   -83.5841   185.8686 C5            1 RES     
    9112 C5        -137.1276   -84.6755   186.9140 C5            1 RES     
    9113 C5        -136.9676   -86.1355   186.4408 C5            1 RES     
    9114 C5        -137.9712   -86.5971   185.3678 C5            1 RES     
    9115 C5        -139.4498   -86.5595   185.8024 C5            1 RES     
    9116 C5        -139.7495   -87.4409   187.0182 C5            1 RES     
    9117 H6        -141.3014   -70.4714   181.7114 H6            1 RES     
    9118 H6        -142.2488   -71.6351   180.7122 H6            1 RES     
    9119 H6        -142.6056   -71.4334   182.4579 H6            1 RES     
    9120 H6        -140.3958   -72.3436   183.0916 H6            1 RES     
    9121 H6        -141.3120   -73.5609   182.1189 H6            1 RES     
    9122 H6        -139.9267   -72.9575   180.0793 H6            1 RES     
    9123 H6        -139.1780   -71.6491   181.0271 H6            1 RES     
    9124 H6        -138.0250   -73.2501   182.5505 H6            1 RES     
    9125 H6        -137.4724   -73.3021   180.8381 H6            1 RES     
    9126 H6        -138.5873   -75.4916   180.4665 H6            1 RES     
    9127 H6        -139.2838   -75.3876   182.0873 H6            1 RES     
    9128 H6        -137.6903   -77.1281   182.1875 H6            1 RES     
    9129 H6        -137.0730   -75.8112   183.2265 H6            1 RES     
    9130 H6        -135.9807   -76.7678   180.5298 H6            1 RES     
    9131 H6        -135.1344   -75.5297   181.4466 H6            1 RES     
    9132 H6        -134.0249   -77.8671   181.0499 H6            1 RES     
    9133 H6        -135.2222   -78.6447   182.0833 H6            1 RES     
    9134 H6        -132.7121   -76.9769   183.0203 H6            1 RES     
    9135 H6        -133.9497   -77.6875   184.0752 H6            1 RES     
    9136 H6        -132.8324   -79.9648   184.0373 H6            1 RES     
    9137 H6        -131.9951   -78.6563   184.8336 H6            1 RES     
    9138 H6        -129.9819   -78.8591   183.7379 H6            1 RES     
    9139 H6        -129.5673   -79.6552   181.4219 H6            1 RES     
    9140 H6        -130.7194   -78.3876   181.8028 H6            1 RES     
    9141 H6        -132.7196   -79.9613   181.4553 H6            1 RES     
    9142 H6        -131.5170   -81.1041   180.7828 H6            1 RES     
    9143 H6        -130.9570   -79.1793   179.0609 H6            1 RES     
    9144 H6        -132.2585   -78.2296   179.7363 H6            1 RES     
    9145 H6        -132.9408   -79.3810   177.6042 H6            1 RES     
    9146 H6        -133.9964   -79.8213   178.9716 H6            1 RES     
    9147 H6        -132.9087   -81.9368   179.2818 H6            1 RES     
    9148 H6        -133.4836   -81.8648   177.6255 H6            1 RES     
    9149 H6        -130.5864   -80.9360   177.9927 H6            1 RES     
    9150 H6        -130.9177   -82.5925   178.5003 H6            1 RES     
    9151 H6        -131.7069   -83.2463   176.3073 H6            1 RES     
    9152 H6        -130.0692   -82.5013   176.2413 H6            1 RES     
    9153 H6        -131.0831   -80.3539   175.4054 H6            1 RES     
    9154 H6        -131.4156   -81.7706   174.3378 H6            1 RES     
    9155 H6        -132.7151   -81.1488   175.4156 H6            1 RES     
    9156 H6        -128.5100   -80.0815   184.7671 H6            1 RES     
    9157 H6        -128.5573   -81.1588   183.4632 H6            1 RES     
    9158 H6        -129.6560   -83.7821   184.4908 H6            1 RES     
    9159 H6        -129.8855   -84.0170   186.2584 H6            1 RES     
    9160 H6        -131.2850   -81.6295   184.8237 H6            1 RES     
    9161 H6        -132.8668   -81.6631   186.5369 H6            1 RES     
    9162 H6        -132.2431   -83.2084   187.1902 H6            1 RES     
    9163 H6        -131.7414   -81.2702   188.5964 H6            1 RES     
    9164 H6        -130.2661   -82.1583   188.0698 H6            1 RES     
    9165 H6        -129.6194   -80.3648   186.6159 H6            1 RES     
    9166 H6        -131.2153   -79.5785   186.6605 H6            1 RES     
    9167 H6        -129.4353   -78.3639   187.8712 H6            1 RES     
    9168 H6        -130.7764   -78.9260   188.9429 H6            1 RES     
    9169 H6        -129.3698   -80.9083   189.5936 H6            1 RES     
    9170 H6        -127.9834   -80.2606   188.6414 H6            1 RES     
    9171 H6        -127.9638   -78.2440   190.1515 H6            1 RES     
    9172 H6        -129.5088   -78.8149   190.9100 H6            1 RES     
    9173 H6        -126.8212   -80.2318   191.0289 H6            1 RES     
    9174 H6        -128.3912   -80.9334   191.6410 H6            1 RES     
    9175 H6        -126.9769   -78.4092   192.6382 H6            1 RES     
    9176 H6        -127.1137   -80.0131   193.4729 H6            1 RES     
    9177 H6        -128.5980   -79.0210   193.1989 H6            1 RES     
    9178 H6        -132.5213   -84.3627   184.8640 H6            1 RES     
    9179 H6        -131.6702   -83.5787   183.4993 H6            1 RES     
    9180 H6        -133.3165   -81.8375   183.1938 H6            1 RES     
    9181 H6        -133.8938   -83.4746   182.9810 H6            1 RES     
    9182 H6        -134.7678   -81.6232   185.2723 H6            1 RES     
    9183 H6        -135.6564   -82.1769   183.8272 H6            1 RES     
    9184 H6        -134.6601   -83.8864   186.1542 H6            1 RES     
    9185 H6        -135.3552   -84.5943   184.6352 H6            1 RES     
    9186 H6        -137.5441   -83.6055   185.0318 H6            1 RES     
    9187 H6        -136.9223   -82.6072   186.3872 H6            1 RES     
    9188 H6        -138.1492   -84.5199   187.3207 H6            1 RES     
    9189 H6        -136.4212   -84.5263   187.7589 H6            1 RES     
    9190 H6        -137.0606   -86.8002   187.3238 H6            1 RES     
    9191 H6        -135.9375   -86.2864   186.0573 H6            1 RES     
    9192 H6        -137.8479   -85.9764   184.4554 H6            1 RES     
    9193 H6        -137.7189   -87.6459   185.0949 H6            1 RES     
    9194 H6        -139.7634   -85.5173   186.0169 H6            1 RES     
    9195 H6        -140.0649   -86.9283   184.9530 H6            1 RES     
    9196 H6        -139.4610   -88.4945   186.8160 H6            1 RES     
    9197 H6        -139.2125   -87.0786   187.9186 H6            1 RES     
    9198 H6        -140.8368   -87.4078   187.2405 H6            1 RES     
    9199 C0        -118.3626   -90.0090   194.7914 C0            1 RES     
    9200 C0        -119.7049   -88.9989   195.5656 C0            1 RES     
    9201 C0        -120.8333   -89.7951   195.7161 C0            1 RES     
    9202 S1        -122.2866   -88.9739   196.1227 S1            1 RES     
    9203 C0        -121.8108   -87.3852   196.1941 C0            1 RES     
    9204 C0        -120.2951   -87.5474   195.8838 C0            1 RES     
    9205 C0        -120.7401   -91.0395   194.9517 C0            1 RES     
    9206 C0        -119.6134   -90.5653   194.0482 C0            1 RES     
    9207 C0        -120.0990   -90.0590   192.8821 C0            1 RES     
    9208 C0        -121.4664   -90.2290   192.6789 C0            1 RES     
    9209 S1        -122.2770   -91.1587   193.9513 S1            1 RES     
    9210 H2        -119.7274   -86.6322   195.7666 H2            1 RES     
    9211 H2        -119.5409   -89.3918   192.2459 H2            1 RES     
    9212 N3        -125.5788   -86.0958   196.4986 N3            1 RES     
    9213 C0        -124.4514   -86.7951   196.2981 C0            1 RES     
    9214 C0        -123.0768   -86.2954   196.4791 C0            1 RES     
    9215 C0        -123.1573   -84.8835   196.9085 C0            1 RES     
    9216 N3        -122.0818   -84.0746   197.1693 N3            1 RES     
    9217 S1        -122.7752   -82.6335   197.6360 S1            1 RES     
    9218 N3        -124.3985   -82.9170   197.5166 N3            1 RES     
    9219 C0        -124.4333   -84.1922   197.1073 C0            1 RES     
    9220 C0        -125.6489   -84.7961   196.8980 C0            1 RES     
    9221 H4        -124.6310   -87.7943   195.9687 H4            1 RES     
    9222 C5        -106.9798  -105.7111   194.4890 C5            1 RES     
    9223 C5        -107.8484  -104.4456   194.7393 C5            1 RES     
    9224 C5        -107.3899  -103.1929   193.9228 C5            1 RES     
    9225 C5        -108.3731  -101.9255   193.8483 C5            1 RES     
    9226 C5        -108.5703  -100.9575   195.0934 C5            1 RES     
    9227 C5        -109.7513   -99.7835   195.1577 C5            1 RES     
    9228 C5        -109.7727   -98.3179   194.3927 C5            1 RES     
    9229 C5        -110.7794   -96.9132   194.6983 C5            1 RES     
    9230 C5        -112.3163   -96.4126   194.1530 C5            1 RES     
    9231 C5        -113.5162   -95.0989   194.4329 C5            1 RES     
    9232 C5        -113.8710   -93.4457   193.8709 C5            1 RES     
    9233 C5        -112.3421   -93.0433   193.4537 C5            1 RES     
    9234 C5        -111.1443   -93.1601   194.5028 C5            1 RES     
    9235 C5        -109.6842   -93.2657   193.8821 C5            1 RES     
    9236 C5        -108.4906   -93.1982   194.9101 C5            1 RES     
    9237 C5        -108.5561   -91.9901   195.8700 C5            1 RES     
    9238 C5        -108.6862   -90.6212   195.1591 C5            1 RES     
    9239 C5        -107.4868   -89.6750   195.2888 C5            1 RES     
    9240 C5        -106.1806   -90.2185   194.7203 C5            1 RES     
    9241 C5        -115.3199   -92.1045   193.9260 C5            1 RES     
    9242 C0        -116.8560   -91.3231   194.8540 C0            1 RES     
    9243 C5        -116.4166   -91.4981   196.3303 C5            1 RES     
    9244 C5        -115.7048   -92.8863   196.7070 C5            1 RES     
    9245 C5        -116.7010   -94.0125   197.0324 C5            1 RES     
    9246 C5        -117.8360   -94.2774   196.0166 C5            1 RES     
    9247 C5        -117.3942   -94.5180   194.5565 C5            1 RES     
    9248 C5        -118.4712   -95.1060   193.6542 C5            1 RES     
    9249 C5        -119.7557   -94.2765   193.6639 C5            1 RES     
    9250 C5        -120.8807   -95.0242   192.9558 C5            1 RES     
    9251 C5        -122.2062   -94.3381   193.2571 C5            1 RES     
    9252 C5        -123.3980   -95.1272   192.7656 C5            1 RES     
    9253 C5        -114.6245   -92.6855   197.8238 C5            1 RES     
    9254 C5        -113.4763   -93.7343   198.0854 C5            1 RES     
    9255 C5        -113.7181   -95.0901   198.8030 C5            1 RES     
    9256 C5        -114.4203   -94.9159   200.1558 C5            1 RES     
    9257 C5        -114.3962   -96.1852   201.0371 C5            1 RES     
    9258 C5        -115.4104   -96.0961   202.1988 C5            1 RES     
    9259 C5        -115.2489   -94.8914   203.1494 C5            1 RES     
    9260 C5        -113.9710   -94.8935   204.0091 C5            1 RES     
    9261 C5        -113.8410   -96.0868   204.9763 C5            1 RES     
    9262 C5        -114.9880   -96.1793   205.9866 C5            1 RES     
    9263 H6        -107.0038  -106.0205   193.4192 H6            1 RES     
    9264 H6        -105.9190  -105.5676   194.7861 H6            1 RES     
    9265 H6        -107.3729  -106.5772   195.0738 H6            1 RES     
    9266 H6        -108.8790  -104.7233   194.4348 H6            1 RES     
    9267 H6        -107.8377  -104.2249   195.8258 H6            1 RES     
    9268 H6        -106.3580  -102.9135   194.2341 H6            1 RES     
    9269 H6        -107.3031  -103.5748   192.8775 H6            1 RES     
    9270 H6        -109.3577  -102.3323   193.5465 H6            1 RES     
    9271 H6        -107.9819  -101.2957   193.0243 H6            1 RES     
    9272 H6        -107.5700  -100.5386   195.3550 H6            1 RES     
    9273 H6        -108.8025  -101.6730   195.9183 H6            1 RES     
    9274 H6        -109.7213   -99.5209   196.2384 H6            1 RES     
    9275 H6        -110.7026  -100.3107   194.9703 H6            1 RES     
    9276 H6        -108.7455   -97.9738   194.6715 H6            1 RES     
    9277 H6        -109.7072   -98.5128   193.3025 H6            1 RES     
    9278 H6        -110.0848   -96.1326   194.3244 H6            1 RES     
    9279 H6        -110.7289   -96.8376   195.8057 H6            1 RES     
    9280 H6        -112.2364   -96.5181   193.0514 H6            1 RES     
    9281 H6        -112.8761   -97.3008   194.5101 H6            1 RES     
    9282 H6        -113.5785   -95.0845   195.5253 H6            1 RES     
    9283 H6        -114.4153   -95.6300   194.0936 H6            1 RES     
    9284 H6        -114.1501   -93.7252   192.8303 H6            1 RES     
    9285 H6        -112.2795   -92.0920   192.8881 H6            1 RES     
    9286 H6        -112.0320   -93.8197   192.7051 H6            1 RES     
    9287 H6        -111.2357   -94.0656   195.1348 H6            1 RES     
    9288 H6        -111.2134   -92.2757   195.1550 H6            1 RES     
    9289 H6        -109.5360   -92.4794   193.1232 H6            1 RES     
    9290 H6        -109.5547   -94.2159   193.3133 H6            1 RES     
    9291 H6        -107.5170   -93.1754   194.3632 H6            1 RES     
    9292 H6        -108.4693   -94.1187   195.5384 H6            1 RES     
    9293 H6        -109.4583   -92.1522   196.4919 H6            1 RES     
    9294 H6        -107.7150   -91.9851   196.6011 H6            1 RES     
    9295 H6        -108.9446   -90.7258   194.0924 H6            1 RES     
    9296 H6        -109.5428   -90.0913   195.6257 H6            1 RES     
    9297 H6        -107.3366   -89.4159   196.3578 H6            1 RES     
    9298 H6        -107.7463   -88.7430   194.7390 H6            1 RES     
    9299 H6        -106.2939   -90.4871   193.6497 H6            1 RES     
    9300 H6        -105.4023   -89.4290   194.8087 H6            1 RES     
    9301 H6        -105.8421   -91.1042   195.2960 H6            1 RES     
    9302 H6        -115.8055   -92.3231   192.9476 H6            1 RES     
    9303 H6        -114.7466   -91.1981   193.6376 H6            1 RES     
    9304 H6        -115.6963   -90.6676   196.4592 H6            1 RES     
    9305 H6        -117.2809   -91.3222   197.0005 H6            1 RES     
    9306 H6        -115.1029   -93.2627   195.9012 H6            1 RES     
    9307 H6        -116.1265   -94.9490   197.1449 H6            1 RES     
    9308 H6        -117.1819   -93.7852   198.0025 H6            1 RES     
    9309 H6        -118.3681   -95.1809   196.3805 H6            1 RES     
    9310 H6        -118.5392   -93.4189   196.0511 H6            1 RES     
    9311 H6        -117.1594   -93.5784   194.0966 H6            1 RES     
    9312 H6        -116.5159   -95.1822   194.5215 H6            1 RES     
    9313 H6        -118.0841   -95.1755   192.6110 H6            1 RES     
    9314 H6        -118.6803   -96.1289   194.0247 H6            1 RES     
    9315 H6        -120.0769   -94.1530   194.7153 H6            1 RES     
    9316 H6        -119.5942   -93.2664   193.2222 H6            1 RES     
    9317 H6        -120.6932   -95.0792   191.8606 H6            1 RES     
    9318 H6        -120.9292   -96.0519   193.3727 H6            1 RES     
    9319 H6        -122.2059   -93.3632   192.7515 H6            1 RES     
    9320 H6        -122.3176   -94.2169   194.3610 H6            1 RES     
    9321 H6        -123.3631   -95.2094   191.6614 H6            1 RES     
    9322 H6        -124.3243   -94.5948   193.0706 H6            1 RES     
    9323 H6        -123.3957   -96.1359   193.2289 H6            1 RES     
    9324 H6        -115.1091   -92.3957   198.7732 H6            1 RES     
    9325 H6        -114.0353   -91.8103   197.4673 H6            1 RES     
    9326 H6        -112.9081   -93.9239   197.1551 H6            1 RES     
    9327 H6        -112.7512   -93.2065   198.7424 H6            1 RES     
    9328 H6        -114.2781   -95.8112   198.1718 H6            1 RES     
    9329 H6        -112.7117   -95.5405   198.9826 H6            1 RES     
    9330 H6        -115.4683   -94.6303   199.9324 H6            1 RES     
    9331 H6        -113.9256   -94.1028   200.7282 H6            1 RES     
    9332 H6        -113.3658   -96.3687   201.4202 H6            1 RES     
    9333 H6        -114.6882   -97.0699   200.4303 H6            1 RES     
    9334 H6        -115.3993   -97.0414   202.7816 H6            1 RES     
    9335 H6        -116.4187   -96.0165   201.7384 H6            1 RES     
    9336 H6        -116.1298   -94.8579   203.8223 H6            1 RES     
    9337 H6        -115.2836   -93.9518   202.5606 H6            1 RES     
    9338 H6        -113.0803   -94.8678   203.3468 H6            1 RES     
    9339 H6        -113.9657   -93.9586   204.6126 H6            1 RES     
    9340 H6        -113.7717   -97.0380   204.4098 H6            1 RES     
    9341 H6        -112.8937   -95.9636   205.5451 H6            1 RES     
    9342 H6        -115.0614   -95.2426   206.5793 H6            1 RES     
    9343 H6        -115.9555   -96.3704   205.4788 H6            1 RES     
    9344 H6        -114.8017   -97.0247   206.6819 H6            1 RES     
    9345 C0        -130.1449   -82.7802   195.2558 C0            1 RES     
    9346 C0        -130.2312   -84.6189   195.4381 C0            1 RES     
    9347 C0        -130.0881   -84.9422   196.7815 C0            1 RES     
    9348 S1        -129.8240   -86.6031   197.1332 S1            1 RES     
    9349 C0        -129.8215   -87.3076   195.6302 C0            1 RES     
    9350 C0        -130.0981   -86.0557   194.7492 C0            1 RES     
    9351 C0        -129.6018   -83.8129   197.5751 C0            1 RES     
    9352 C0        -129.0978   -83.0120   196.3855 C0            1 RES     
    9353 C0        -127.7736   -83.2375   196.1674 C0            1 RES     
    9354 C0        -127.1255   -83.9904   197.1435 C0            1 RES     
    9355 S1        -128.1504   -84.4224   198.5232 S1            1 RES     
    9356 H2        -130.0550   -86.2030   193.6768 H2            1 RES     
    9357 H2        -127.2852   -83.0449   195.2261 H2            1 RES     
    9358 N3        -128.5706   -90.8091   197.0890 N3            1 RES     
    9359 C0        -128.8909   -89.5233   196.8776 C0            1 RES     
    9360 C0        -129.4717   -88.9656   195.6432 C0            1 RES     
    9361 C0        -129.6283   -90.0696   194.6732 C0            1 RES     
    9362 N3        -130.1303   -89.9409   193.4042 N3            1 RES     
    9363 S1        -130.0991   -91.4959   192.8072 S1            1 RES     
    9364 N3        -129.4544   -92.3828   194.0432 N3            1 RES     
    9365 C0        -129.2549   -91.4513   194.9853 C0            1 RES     
    9366 C0        -128.7200   -91.8241   196.1940 C0            1 RES     
    9367 H4        -128.6724   -88.8945   197.7119 H4            1 RES     
    9368 C5        -136.2580   -64.9693   199.9051 C5            1 RES     
    9369 C5        -135.9910   -66.4540   199.5269 C5            1 RES     
    9370 C5        -135.2134   -66.6335   198.1819 C5            1 RES     
    9371 C5        -134.6059   -68.0789   197.8356 C5            1 RES     
    9372 C5        -135.5399   -69.2805   197.3774 C5            1 RES     
    9373 C5        -135.0041   -70.8529   197.2452 C5            1 RES     
    9374 C5        -134.0716   -71.5138   196.0505 C5            1 RES     
    9375 C5        -133.7859   -73.2010   195.6612 C5            1 RES     
    9376 C5        -132.6617   -74.3685   196.1936 C5            1 RES     
    9377 C5        -132.2971   -76.1209   195.9936 C5            1 RES     
    9378 C5        -131.4055   -77.2024   194.8936 C5            1 RES     
    9379 C5        -131.5037   -76.2590   193.5617 C5            1 RES     
    9380 C5        -132.9149   -75.7500   193.0153 C5            1 RES     
    9381 C5        -132.8769   -74.4584   192.0888 C5            1 RES     
    9382 C5        -134.2396   -74.0610   191.4022 C5            1 RES     
    9383 C5        -134.9214   -75.2200   190.6426 C5            1 RES     
    9384 C5        -134.0147   -75.9138   189.5972 C5            1 RES     
    9385 C5        -134.4192   -75.7391   188.1288 C5            1 RES     
    9386 C5        -134.4401   -74.2950   187.6398 C5            1 RES     
    9387 C5        -130.7409   -79.0602   194.8039 C5            1 RES     
    9388 C0        -130.9345   -80.9432   195.3025 C0            1 RES     
    9389 C5        -132.4790   -81.0719   195.3362 C5            1 RES     
    9390 C5        -133.2869   -79.8461   195.9843 C5            1 RES     
    9391 C5        -133.4015   -79.9345   197.5159 C5            1 RES     
    9392 C5        -132.1004   -80.1716   198.3167 C5            1 RES     
    9393 C5        -130.9462   -79.1838   198.0394 C5            1 RES     
    9394 C5        -129.8187   -79.2186   199.0629 C5            1 RES     
    9395 C5        -129.2472   -80.6242   199.2520 C5            1 RES     
    9396 C5        -128.3058   -80.6619   200.4514 C5            1 RES     
    9397 C5        -128.0102   -82.1116   200.8114 C5            1 RES     
    9398 C5        -127.2510   -82.2479   202.1114 C5            1 RES     
    9399 C5        -134.6714   -79.6429   195.2795 C5            1 RES     
    9400 C5        -135.4775   -78.2911   195.3772 C5            1 RES     
    9401 C5        -136.2564   -77.8622   196.6505 C5            1 RES     
    9402 C5        -137.2290   -78.9468   197.1312 C5            1 RES     
    9403 C5        -138.2404   -78.4507   198.1891 C5            1 RES     
    9404 C5        -138.9386   -79.6249   198.9101 C5            1 RES     
    9405 C5        -139.6930   -80.6231   198.0071 C5            1 RES     
    9406 C5        -140.9407   -80.0627   197.2992 C5            1 RES     
    9407 C5        -142.0577   -79.5735   198.2423 C5            1 RES     
    9408 C5        -142.5960   -80.6684   199.1676 C5            1 RES     
    9409 H6        -135.3085   -64.3991   200.0249 H6            1 RES     
    9410 H6        -136.8876   -64.4435   199.1560 H6            1 RES     
    9411 H6        -136.7873   -64.9046   200.8860 H6            1 RES     
    9412 H6        -135.3853   -66.8717   200.3580 H6            1 RES     
    9413 H6        -136.9644   -66.9833   199.4852 H6            1 RES     
    9414 H6        -135.8256   -66.2184   197.3495 H6            1 RES     
    9415 H6        -134.3369   -65.9506   198.2891 H6            1 RES     
    9416 H6        -134.0383   -68.3846   198.7358 H6            1 RES     
    9417 H6        -133.8905   -67.9082   197.0062 H6            1 RES     
    9418 H6        -136.0742   -68.9570   196.4530 H6            1 RES     
    9419 H6        -136.3255   -69.2888   198.1706 H6            1 RES     
    9420 H6        -135.9727   -71.3935   197.1586 H6            1 RES     
    9421 H6        -134.5719   -71.1016   198.2298 H6            1 RES     
    9422 H6        -134.6425   -71.1309   195.1680 H6            1 RES     
    9423 H6        -133.1181   -70.9473   196.0236 H6            1 RES     
    9424 H6        -133.5711   -73.0827   194.5789 H6            1 RES     
    9425 H6        -134.8143   -73.6192   195.7071 H6            1 RES     
    9426 H6        -131.6895   -73.8445   196.0881 H6            1 RES     
    9427 H6        -132.9250   -74.3205   197.2698 H6            1 RES     
    9428 H6        -133.2808   -76.5720   196.1561 H6            1 RES     
    9429 H6        -131.7440   -76.2759   196.9293 H6            1 RES     
    9430 H6        -130.3878   -76.8361   195.1568 H6            1 RES     
    9431 H6        -130.8619   -76.6104   192.7290 H6            1 RES     
    9432 H6        -131.0392   -75.2829   193.8630 H6            1 RES     
    9433 H6        -133.6009   -75.4715   193.8397 H6            1 RES     
    9434 H6        -133.3599   -76.5944   192.4665 H6            1 RES     
    9435 H6        -132.1118   -74.5763   191.3033 H6            1 RES     
    9436 H6        -132.5401   -73.5616   192.6593 H6            1 RES     
    9437 H6        -134.0775   -73.2099   190.6972 H6            1 RES     
    9438 H6        -134.9644   -73.6946   192.1657 H6            1 RES     
    9439 H6        -135.1988   -75.9616   191.4171 H6            1 RES     
    9440 H6        -135.8941   -74.9154   190.1919 H6            1 RES     
    9441 H6        -132.9542   -75.6343   189.7111 H6            1 RES     
    9442 H6        -134.0615   -77.0046   189.7975 H6            1 RES     
    9443 H6        -135.4202   -76.1909   187.9667 H6            1 RES     
    9444 H6        -133.6803   -76.3042   187.5181 H6            1 RES     
    9445 H6        -133.4521   -73.8114   187.7853 H6            1 RES     
    9446 H6        -134.6802   -74.2941   186.5539 H6            1 RES     
    9447 H6        -135.2239   -73.7147   188.1681 H6            1 RES     
    9448 H6        -129.6982   -78.8963   195.1601 H6            1 RES     
    9449 H6        -130.5431   -79.1355   193.7137 H6            1 RES     
    9450 H6        -132.7297   -81.1514   194.2610 H6            1 RES     
    9451 H6        -132.7639   -82.0188   195.8354 H6            1 RES     
    9452 H6        -132.8136   -78.9023   195.7882 H6            1 RES     
    9453 H6        -133.8494   -78.9913   197.8756 H6            1 RES     
    9454 H6        -134.0918   -80.7615   197.7683 H6            1 RES     
    9455 H6        -132.3822   -80.0976   199.3877 H6            1 RES     
    9456 H6        -131.7540   -81.2072   198.1163 H6            1 RES     
    9457 H6        -130.4649   -79.4488   197.1187 H6            1 RES     
    9458 H6        -131.3253   -78.1510   197.9804 H6            1 RES     
    9459 H6        -129.0041   -78.5287   198.7413 H6            1 RES     
    9460 H6        -130.2391   -78.8508   200.0196 H6            1 RES     
    9461 H6        -130.0847   -81.3061   199.4915 H6            1 RES     
    9462 H6        -128.7462   -80.9905   198.3267 H6            1 RES     
    9463 H6        -127.3701   -80.0986   200.2396 H6            1 RES     
    9464 H6        -128.8268   -80.1983   201.3150 H6            1 RES     
    9465 H6        -127.3980   -82.5424   200.0078 H6            1 RES     
    9466 H6        -128.9711   -82.6679   200.9253 H6            1 RES     
    9467 H6        -126.2569   -81.7685   202.0165 H6            1 RES     
    9468 H6        -127.1237   -83.3290   202.3343 H6            1 RES     
    9469 H6        -127.8301   -81.7785   202.9338 H6            1 RES     
    9470 H6        -135.3319   -80.5043   195.4842 H6            1 RES     
    9471 H6        -134.4210   -79.6627   194.1945 H6            1 RES     
    9472 H6        -134.8495   -77.4428   195.0453 H6            1 RES     
    9473 H6        -136.2625   -78.3691   194.5939 H6            1 RES     
    9474 H6        -135.5827   -77.5586   197.4787 H6            1 RES     
    9475 H6        -136.8471   -76.9554   196.3733 H6            1 RES     
    9476 H6        -136.6077   -79.7619   197.5548 H6            1 RES     
    9477 H6        -137.8114   -79.3316   196.2673 H6            1 RES     
    9478 H6        -138.9875   -77.7705   197.7186 H6            1 RES     
    9479 H6        -137.7090   -77.8695   198.9739 H6            1 RES     
    9480 H6        -139.6215   -79.2332   199.6933 H6            1 RES     
    9481 H6        -138.1435   -80.1961   199.4361 H6            1 RES     
    9482 H6        -139.9958   -81.4925   198.6256 H6            1 RES     
    9483 H6        -138.9969   -81.0252   197.2425 H6            1 RES     
    9484 H6        -140.6423   -79.2279   196.6307 H6            1 RES     
    9485 H6        -141.3597   -80.8703   196.6586 H6            1 RES     
    9486 H6        -141.7018   -78.7181   198.8523 H6            1 RES     
    9487 H6        -142.9008   -79.2118   197.6143 H6            1 RES     
    9488 H6        -142.9769   -81.5271   198.5745 H6            1 RES     
    9489 H6        -141.8122   -81.0234   199.8676 H6            1 RES     
    9490 H6        -143.4301   -80.2612   199.7769 H6            1 RES     
    9491 C0        -125.3057   -95.5704   197.3262 C0            1 RES     
    9492 C0        -125.7180   -94.5345   198.8020 C0            1 RES     
    9493 C0        -127.0567   -94.7235   199.1211 C0            1 RES     
    9494 S1        -127.7232   -93.6223   200.2590 S1            1 RES     
    9495 C0        -126.4426   -92.6261   200.6094 C0            1 RES     
    9496 C0        -125.3444   -93.2839   199.7257 C0            1 RES     
    9497 C0        -127.7930   -95.3947   198.0492 C0            1 RES     
    9498 C0        -126.7548   -95.1213   196.9731 C0            1 RES     
    9499 C0        -127.0578   -93.9939   196.2737 C0            1 RES     
    9500 C0        -128.3014   -93.4322   196.5526 C0            1 RES     
    9501 S1        -129.2746   -94.3643   197.7035 S1            1 RES     
    9502 H2        -124.3922   -92.7693   199.6790 H2            1 RES     
    9503 H2        -126.3342   -93.4376   195.7007 H2            1 RES     
    9504 N3        -128.7565   -90.0923   202.6538 N3            1 RES     
    9505 C0        -128.2555   -91.0462   201.8541 C0            1 RES     
    9506 C0        -126.8268   -91.3442   201.6491 C0            1 RES     
    9507 C0        -126.0411   -90.3991   202.4700 C0            1 RES     
    9508 N3        -124.6725   -90.3596   202.5368 N3            1 RES     
    9509 S1        -124.3652   -89.1377   203.6267 S1            1 RES     
    9510 N3        -125.8673   -88.5886   204.0415 N3            1 RES     
    9511 C0        -126.6682   -89.3852   203.3210 C0            1 RES     
    9512 C0        -128.0293   -89.2259   203.4115 C0            1 RES     
    9513 H4        -129.0089   -91.5992   201.3386 H4            1 RES     
    9514 C5        -124.7611  -112.7009   188.2451 C5            1 RES     
    9515 C5        -124.7289  -111.4422   189.1579 C5            1 RES     
    9516 C5        -123.7910  -110.3055   188.6341 C5            1 RES     
    9517 C5        -123.9035  -108.8504   189.3038 C5            1 RES     
    9518 C5        -123.3283  -108.5623   190.7572 C5            1 RES     
    9519 C5        -123.6318  -107.1543   191.5954 C5            1 RES     
    9520 C5        -122.9596  -105.6626   191.3573 C5            1 RES     
    9521 C5        -122.9541  -104.2591   192.4109 C5            1 RES     
    9522 C5        -124.0193  -102.9478   192.6474 C5            1 RES     
    9523 C5        -124.2263  -101.5183   193.7234 C5            1 RES     
    9524 C5        -123.6898   -99.8234   193.8429 C5            1 RES     
    9525 C5        -122.2850   -99.9997   193.0250 C5            1 RES     
    9526 C5        -121.2033  -101.0860   193.4707 C5            1 RES     
    9527 C5        -120.1688  -101.5373   192.3506 C5            1 RES     
    9528 C5        -118.9916  -102.4687   192.8331 C5            1 RES     
    9529 C5        -118.2216  -101.9249   194.0564 C5            1 RES     
    9530 C5        -117.6830  -100.4846   193.8781 C5            1 RES     
    9531 C5        -116.1583  -100.3346   193.8235 C5            1 RES     
    9532 C5        -115.4838  -101.0824   192.6786 C5            1 RES     
    9533 C5        -124.1209   -98.1627   194.8213 C5            1 RES     
    9534 C0        -124.7936   -97.2878   196.4380 C0            1 RES     
    9535 C5        -124.2950   -98.2744   197.5247 C5            1 RES     
    9536 C5        -124.4227   -99.8381   197.1868 C5            1 RES     
    9537 C5        -125.8083  -100.4205   197.5145 C5            1 RES     
    9538 C5        -127.0451   -99.6741   196.9633 C5            1 RES     
    9539 C5        -127.0518   -99.4078   195.4421 C5            1 RES     
    9540 C5        -128.4020   -98.9894   194.8750 C5            1 RES     
    9541 C5        -128.9897   -97.7800   195.6029 C5            1 RES     
    9542 C5        -130.4366   -97.5511   195.1782 C5            1 RES     
    9543 C5        -131.0905   -96.5649   196.1364 C5            1 RES     
    9544 C5        -132.5801   -96.4351   195.9152 C5            1 RES     
    9545 C5        -123.2499  -100.6551   197.8286 C5            1 RES     
    9546 C5        -122.8516  -102.0958   197.3263 C5            1 RES     
    9547 C5        -123.6855  -103.3647   197.6525 C5            1 RES     
    9548 C5        -123.9455  -103.5201   199.1564 C5            1 RES     
    9549 C5        -124.4880  -104.9116   199.5533 C5            1 RES     
    9550 C5        -125.0807  -104.9106   200.9798 C5            1 RES     
    9551 C5        -124.1285  -104.4655   202.1096 C5            1 RES     
    9552 C5        -122.9482  -105.4136   202.3921 C5            1 RES     
    9553 C5        -123.3483  -106.8309   202.8476 C5            1 RES     
    9554 C5        -124.1743  -106.8455   204.1369 C5            1 RES     
    9555 H6        -125.1238  -112.4559   187.2207 H6            1 RES     
    9556 H6        -123.7675  -113.1896   188.1549 H6            1 RES     
    9557 H6        -125.4684  -113.4622   188.6534 H6            1 RES     
    9558 H6        -125.7734  -111.0681   189.1911 H6            1 RES     
    9559 H6        -124.4236  -111.7579   190.1760 H6            1 RES     
    9560 H6        -122.7434  -110.6819   188.6068 H6            1 RES     
    9561 H6        -124.0994  -110.1769   187.5690 H6            1 RES     
    9562 H6        -124.9815  -108.5985   189.2846 H6            1 RES     
    9563 H6        -123.3670  -108.1661   188.6163 H6            1 RES     
    9564 H6        -122.2372  -108.7939   190.7387 H6            1 RES     
    9565 H6        -123.7822  -109.3840   191.3614 H6            1 RES     
    9566 H6        -123.2884  -107.4432   192.6135 H6            1 RES     
    9567 H6        -124.7310  -107.0618   191.6295 H6            1 RES     
    9568 H6        -121.8852  -105.9721   191.3222 H6            1 RES     
    9569 H6        -123.1890  -105.3589   190.3153 H6            1 RES     
    9570 H6        -122.0141  -103.7913   192.0516 H6            1 RES     
    9571 H6        -122.6934  -104.7146   193.3903 H6            1 RES     
    9572 H6        -124.1892  -102.5757   191.6160 H6            1 RES     
    9573 H6        -124.9116  -103.5515   192.9104 H6            1 RES     
    9574 H6        -124.0940  -101.9651   194.7135 H6            1 RES     
    9575 H6        -125.3094  -101.3844   193.6031 H6            1 RES     
    9576 H6        -124.2396   -99.4555   192.9477 H6            1 RES     
    9577 H6        -121.7973   -99.0346   192.7812 H6            1 RES     
    9578 H6        -122.5822  -100.4090   192.0233 H6            1 RES     
    9579 H6        -121.6785  -102.0322   193.7970 H6            1 RES     
    9580 H6        -120.6649  -100.6561   194.3295 H6            1 RES     
    9581 H6        -119.7336  -100.6527   191.8564 H6            1 RES     
    9582 H6        -120.6809  -102.0822   191.5235 H6            1 RES     
    9583 H6        -118.2716  -102.6379   191.9962 H6            1 RES     
    9584 H6        -119.3838  -103.4748   193.1099 H6            1 RES     
    9585 H6        -118.9485  -101.9292   194.8921 H6            1 RES     
    9586 H6        -117.4146  -102.6174   194.3898 H6            1 RES     
    9587 H6        -118.1232   -99.9779   193.0033 H6            1 RES     
    9588 H6        -118.0142   -99.9007   194.7622 H6            1 RES     
    9589 H6        -115.7205  -100.6741   194.7855 H6            1 RES     
    9590 H6        -115.9418   -99.2492   193.7075 H6            1 RES     
    9591 H6        -115.8969  -100.7659   191.6986 H6            1 RES     
    9592 H6        -114.3964  -100.8501   192.6981 H6            1 RES     
    9593 H6        -115.6060  -102.1780   192.8015 H6            1 RES     
    9594 H6        -124.7957   -97.6838   194.0755 H6            1 RES     
    9595 H6        -123.1966   -97.5814   194.6191 H6            1 RES     
    9596 H6        -123.2257   -98.0025   197.6135 H6            1 RES     
    9597 H6        -124.7959   -98.0535   198.4877 H6            1 RES     
    9598 H6        -124.2689  -100.0391   196.1431 H6            1 RES     
    9599 H6        -125.8401  -101.4540   197.1267 H6            1 RES     
    9600 H6        -125.9195  -100.4621   198.6145 H6            1 RES     
    9601 H6        -127.9220  -100.3051   197.2177 H6            1 RES     
    9602 H6        -127.1380   -98.7099   197.5057 H6            1 RES     
    9603 H6        -126.4129   -98.5748   195.2242 H6            1 RES     
    9604 H6        -126.7083  -100.2979   194.8910 H6            1 RES     
    9605 H6        -128.2917   -98.7509   193.7916 H6            1 RES     
    9606 H6        -129.0804   -99.8589   194.9804 H6            1 RES     
    9607 H6        -129.0150   -98.0092   196.6849 H6            1 RES     
    9608 H6        -128.3688   -96.8678   195.4488 H6            1 RES     
    9609 H6        -130.4895   -97.1900   194.1273 H6            1 RES     
    9610 H6        -130.9790   -98.5159   195.2633 H6            1 RES     
    9611 H6        -130.6309   -95.5805   195.9755 H6            1 RES     
    9612 H6        -130.9372   -96.9118   197.1861 H6            1 RES     
    9613 H6        -132.7743   -96.0237   194.9051 H6            1 RES     
    9614 H6        -132.9926   -95.7466   196.6836 H6            1 RES     
    9615 H6        -133.0631   -97.4281   196.0279 H6            1 RES     
    9616 H6        -123.3329  -100.6372   198.9300 H6            1 RES     
    9617 H6        -122.3408  -100.0748   197.5513 H6            1 RES     
    9618 H6        -122.6418  -102.0811   196.2401 H6            1 RES     
    9619 H6        -121.8615  -102.2967   197.7903 H6            1 RES     
    9620 H6        -124.6437  -103.3988   197.0934 H6            1 RES     
    9621 H6        -123.0843  -104.2400   197.3054 H6            1 RES     
    9622 H6        -124.6789  -102.7353   199.4321 H6            1 RES     
    9623 H6        -122.9989  -103.3592   199.7147 H6            1 RES     
    9624 H6        -123.6867  -105.6800   199.4547 H6            1 RES     
    9625 H6        -125.3142  -105.2025   198.8685 H6            1 RES     
    9626 H6        -125.5021  -105.9112   201.2131 H6            1 RES     
    9627 H6        -125.9339  -104.1986   200.9717 H6            1 RES     
    9628 H6        -124.7215  -104.3494   203.0395 H6            1 RES     
    9629 H6        -123.7305  -103.4562   201.8780 H6            1 RES     
    9630 H6        -122.3126  -105.4926   201.4851 H6            1 RES     
    9631 H6        -122.3288  -104.9556   203.1951 H6            1 RES     
    9632 H6        -123.9097  -107.3511   202.0447 H6            1 RES     
    9633 H6        -122.4151  -107.4061   203.0331 H6            1 RES     
    9634 H6        -123.6200  -106.3465   204.9602 H6            1 RES     
    9635 H6        -125.1519  -106.3414   203.9928 H6            1 RES     
    9636 H6        -124.3793  -107.8957   204.4334 H6            1 RES     
    9637 C0        -130.8473   -84.9393   204.2228 C0            1 RES     
    9638 C0        -131.9077   -86.4152   203.8783 C0            1 RES     
    9639 C0        -131.7546   -87.3274   204.9146 C0            1 RES     
    9640 S1        -132.4031   -88.8948   204.6412 S1            1 RES     
    9641 C0        -133.0326   -88.7769   203.1099 C0            1 RES     
    9642 C0        -132.7059   -87.2876   202.8019 C0            1 RES     
    9643 C0        -130.6042   -87.0148   205.7634 C0            1 RES     
    9644 C0        -129.9394   -86.0845   204.7618 C0            1 RES     
    9645 C0        -129.0178   -86.7481   204.0120 C0            1 RES     
    9646 C0        -128.7493   -88.0550   204.4117 C0            1 RES     
    9647 S1        -129.6046   -88.5522   205.8819 S1            1 RES     
    9648 H2        -132.9243   -86.9447   201.7977 H2            1 RES     
    9649 H2        -128.6632   -86.3954   203.0573 H2            1 RES     
    9650 N3        -133.7179   -92.7067   202.9081 N3            1 RES     
    9651 C0        -133.3007   -91.4692   203.2163 C0            1 RES     
    9652 C0        -133.6638   -90.2295   202.5070 C0            1 RES     
    9653 C0        -134.5592   -90.5896   201.3877 C0            1 RES     
    9654 N3        -135.1014   -89.7035   200.4933 N3            1 RES     
    9655 S1        -136.0336   -90.6638   199.5013 S1            1 RES     
    9656 N3        -135.8004   -92.1892   200.0921 N3            1 RES     
    9657 C0        -134.9701   -91.9699   201.1204 C0            1 RES     
    9658 C0        -134.5460   -93.0340   201.8781 C0            1 RES     
    9659 H4        -132.6399   -91.4464   204.0542 H4            1 RES     
    9660 C5        -125.2220   -70.4247   215.7941 C5            1 RES     
    9661 C5        -125.8875   -71.5316   214.9279 C5            1 RES     
    9662 C5        -125.5676   -71.4171   213.4013 C5            1 RES     
    9663 C5        -125.9282   -72.6581   212.4482 C5            1 RES     
    9664 C5        -127.4306   -72.9784   212.0402 C5            1 RES     
    9665 C5        -127.8857   -74.3818   211.2653 C5            1 RES     
    9666 C5        -127.6820   -74.7776   209.6730 C5            1 RES     
    9667 C5        -128.4463   -76.0458   208.7309 C5            1 RES     
    9668 C5        -128.0899   -77.6887   208.4415 C5            1 RES     
    9669 C5        -128.7956   -79.1267   207.6179 C5            1 RES     
    9670 C5        -128.8432   -79.8745   206.0013 C5            1 RES     
    9671 C5        -128.6141   -78.5039   205.1396 C5            1 RES     
    9672 C5        -129.5721   -77.2411   205.3308 C5            1 RES     
    9673 C5        -128.9737   -75.8394   204.8774 C5            1 RES     
    9674 C5        -129.9765   -74.6227   204.8944 C5            1 RES     
    9675 C5        -131.2976   -74.8872   204.1395 C5            1 RES     
    9676 C5        -131.1093   -75.3638   202.6789 C5            1 RES     
    9677 C5        -131.5783   -74.3963   201.5859 C5            1 RES     
    9678 C5        -130.8734   -73.0443   201.5847 C5            1 RES     
    9679 C5        -129.3445   -81.5760   205.1327 C5            1 RES     
    9680 C0        -130.4664   -83.1796   205.0938 C0            1 RES     
    9681 C5        -131.7938   -82.6128   205.6594 C5            1 RES     
    9682 C5        -131.6703   -81.5887   206.8888 C5            1 RES     
    9683 C5        -131.5672   -82.2877   208.2553 C5            1 RES     
    9684 C5        -130.5076   -83.4030   208.4087 C5            1 RES     
    9685 C5        -129.0619   -83.0197   208.0243 C5            1 RES     
    9686 C5        -127.9962   -83.9996   208.4975 C5            1 RES     
    9687 C5        -128.2782   -85.4315   208.0413 C5            1 RES     
    9688 C5        -127.3378   -86.4098   208.7377 C5            1 RES     
    9689 C5        -127.8422   -87.8302   208.5217 C5            1 RES     
    9690 C5        -127.0893   -88.8495   209.3456 C5            1 RES     
    9691 C5        -132.8014   -80.5055   206.8411 C5            1 RES     
    9692 C5        -132.6948   -79.1394   207.6215 C5            1 RES     
    9693 C5        -132.8890   -79.0270   209.1583 C5            1 RES     
    9694 C5        -134.2075   -79.6565   209.6262 C5            1 RES     
    9695 C5        -134.5889   -79.2933   211.0791 C5            1 RES     
    9696 C5        -135.6943   -80.2206   211.6308 C5            1 RES     
    9697 C5        -137.0086   -80.2640   210.8234 C5            1 RES     
    9698 C5        -137.8305   -78.9615   210.8266 C5            1 RES     
    9699 C5        -138.3204   -78.5061   212.2155 C5            1 RES     
    9700 C5        -139.2186   -79.5329   212.9110 C5            1 RES     
    9701 H6        -124.1113   -70.4528   215.7137 H6            1 RES     
    9702 H6        -125.5649   -69.4039   215.5214 H6            1 RES     
    9703 H6        -125.4611   -70.5765   216.8741 H6            1 RES     
    9704 H6        -125.4911   -72.4940   215.3134 H6            1 RES     
    9705 H6        -126.9826   -71.4957   215.0980 H6            1 RES     
    9706 H6        -125.9711   -70.4533   213.0164 H6            1 RES     
    9707 H6        -124.4561   -71.3197   213.3698 H6            1 RES     
    9708 H6        -125.4897   -73.5471   212.9415 H6            1 RES     
    9709 H6        -125.3822   -72.4724   211.5015 H6            1 RES     
    9710 H6        -127.8358   -72.0795   211.5184 H6            1 RES     
    9711 H6        -127.9495   -72.9904   213.0285 H6            1 RES     
    9712 H6        -128.9903   -74.3368   211.3907 H6            1 RES     
    9713 H6        -127.5126   -75.2040   211.8999 H6            1 RES     
    9714 H6        -128.0776   -73.8349   209.2191 H6            1 RES     
    9715 H6        -126.5936   -74.7453   209.4607 H6            1 RES     
    9716 H6        -128.3789   -75.5674   207.7318 H6            1 RES     
    9717 H6        -129.5107   -75.9379   209.0310 H6            1 RES     
    9718 H6        -127.0223   -77.6629   208.1406 H6            1 RES     
    9719 H6        -128.1057   -78.0134   209.5018 H6            1 RES     
    9720 H6        -129.8229   -79.1160   207.9946 H6            1 RES     
    9721 H6        -128.2796   -79.9076   208.1918 H6            1 RES     
    9722 H6        -127.7668   -80.1554   205.9624 H6            1 RES     
    9723 H6        -128.4182   -78.6910   204.0647 H6            1 RES     
    9724 H6        -127.6454   -78.0821   205.5178 H6            1 RES     
    9725 H6        -129.8458   -77.0874   206.3934 H6            1 RES     
    9726 H6        -130.4917   -77.4587   204.7656 H6            1 RES     
    9727 H6        -128.5402   -75.9201   203.8667 H6            1 RES     
    9728 H6        -128.1101   -75.5428   205.5172 H6            1 RES     
    9729 H6        -129.4855   -73.7177   204.4616 H6            1 RES     
    9730 H6        -130.2430   -74.3563   205.9436 H6            1 RES     
    9731 H6        -131.8111   -75.6869   204.7085 H6            1 RES     
    9732 H6        -131.9956   -74.0200   204.1926 H6            1 RES     
    9733 H6        -130.0700   -75.6649   202.4671 H6            1 RES     
    9734 H6        -131.7201   -76.2823   202.5540 H6            1 RES     
    9735 H6        -132.6723   -74.2343   201.6828 H6            1 RES     
    9736 H6        -131.3861   -74.8917   200.6082 H6            1 RES     
    9737 H6        -129.7751   -73.1684   201.4873 H6            1 RES     
    9738 H6        -131.2432   -72.4549   200.7171 H6            1 RES     
    9739 H6        -131.1072   -72.4806   202.5109 H6            1 RES     
    9740 H6        -128.3450   -82.0671   205.1073 H6            1 RES     
    9741 H6        -129.3996   -81.2375   204.0765 H6            1 RES     
    9742 H6        -132.2151   -82.0861   204.7817 H6            1 RES     
    9743 H6        -132.4713   -83.4468   205.9285 H6            1 RES     
    9744 H6        -130.7920   -80.9750   206.8160 H6            1 RES     
    9745 H6        -131.3526   -81.5147   209.0143 H6            1 RES     
    9746 H6        -132.5489   -82.7395   208.4925 H6            1 RES     
    9747 H6        -130.5249   -83.6969   209.4789 H6            1 RES     
    9748 H6        -130.8309   -84.2740   207.8009 H6            1 RES     
    9749 H6        -128.9633   -83.0296   206.9567 H6            1 RES     
    9750 H6        -128.8085   -82.0211   208.4148 H6            1 RES     
    9751 H6        -127.0000   -83.6788   208.1131 H6            1 RES     
    9752 H6        -127.9822   -83.9525   209.6043 H6            1 RES     
    9753 H6        -129.3018   -85.6996   208.3642 H6            1 RES     
    9754 H6        -128.2204   -85.5271   206.9328 H6            1 RES     
    9755 H6        -126.2954   -86.2899   208.3682 H6            1 RES     
    9756 H6        -127.3679   -86.2022   209.8278 H6            1 RES     
    9757 H6        -127.7099   -88.0791   207.4603 H6            1 RES     
    9758 H6        -128.9171   -87.8900   208.8164 H6            1 RES     
    9759 H6        -126.0268   -88.8728   209.0329 H6            1 RES     
    9760 H6        -127.5488   -89.8474   209.1790 H6            1 RES     
    9761 H6        -127.1701   -88.5935   210.4227 H6            1 RES     
    9762 H6        -133.7855   -80.9762   207.0152 H6            1 RES     
    9763 H6        -132.7819   -80.1494   205.7861 H6            1 RES     
    9764 H6        -131.7649   -78.6082   207.3437 H6            1 RES     
    9765 H6        -133.5049   -78.5054   207.1999 H6            1 RES     
    9766 H6        -132.0377   -79.4561   209.7267 H6            1 RES     
    9767 H6        -132.9133   -77.9363   209.3983 H6            1 RES     
    9768 H6        -134.0840   -80.7544   209.5307 H6            1 RES     
    9769 H6        -135.0350   -79.3152   208.9687 H6            1 RES     
    9770 H6        -134.8975   -78.2241   211.1407 H6            1 RES     
    9771 H6        -133.7068   -79.4239   211.7433 H6            1 RES     
    9772 H6        -135.9093   -79.9618   212.6891 H6            1 RES     
    9773 H6        -135.2772   -81.2506   211.6322 H6            1 RES     
    9774 H6        -137.6386   -81.0827   211.2270 H6            1 RES     
    9775 H6        -136.7856   -80.5449   209.7736 H6            1 RES     
    9776 H6        -137.2313   -78.1456   210.3705 H6            1 RES     
    9777 H6        -138.7231   -79.1211   210.1817 H6            1 RES     
    9778 H6        -137.4577   -78.2677   212.8708 H6            1 RES     
    9779 H6        -138.9092   -77.5727   212.0808 H6            1 RES     
    9780 H6        -140.1007   -79.7703   212.2788 H6            1 RES     
    9781 H6        -138.6629   -80.4669   213.1332 H6            1 RES     
    9782 H6        -139.5764   -79.1180   213.8767 H6            1 RES     
    9783 C0        -133.6524   -97.9649   200.5135 C0            1 RES     
    9784 C0        -133.1783   -97.6314   202.2700 C0            1 RES     
    9785 C0        -134.3252   -97.3293   202.9931 C0            1 RES     
    9786 S1        -134.0768   -96.6824   204.5653 S1            1 RES     
    9787 C0        -132.4225   -96.6273   204.6896 C0            1 RES     
    9788 C0        -132.0319   -97.2323   203.3108 C0            1 RES     
    9789 C0        -135.4705   -97.0508   202.1257 C0            1 RES     
    9790 C0        -134.6436   -96.8179   200.8717 C0            1 RES     
    9791 C0        -134.3784   -95.4946   200.6972 C0            1 RES     
    9792 C0        -135.0380   -94.6316   201.5689 C0            1 RES     
    9793 S1        -136.1649   -95.4396   202.6723 S1            1 RES     
    9794 H2        -130.9764   -97.2310   203.0663 H2            1 RES     
    9795 H2        -133.5709   -95.1260   200.0860 H2            1 RES     
    9796 N3        -132.5800   -94.5393   208.0909 N3            1 RES     
    9797 C0        -132.8277   -95.1485   206.9213 C0            1 RES     
    9798 C0        -131.8589   -95.9207   206.1231 C0            1 RES     
    9799 C0        -130.5618   -95.8960   206.8309 C0            1 RES     
    9800 N3        -129.4114   -96.4994   206.3931 N3            1 RES     
    9801 S1        -128.3083   -96.1672   207.5965 S1            1 RES     
    9802 N3        -129.1642   -95.2602   208.6803 N3            1 RES     
    9803 C0        -130.3754   -95.2071   208.1101 C0            1 RES     
    9804 C0        -131.3843   -94.5220   208.7417 C0            1 RES     
    9805 H4        -133.8323   -95.0176   206.5852 H4            1 RES     
    9806 C5        -144.1592  -107.5201   187.3029 C5            1 RES     
    9807 C5        -143.2889  -106.9590   188.4632 C5            1 RES     
    9808 C5        -141.9769  -106.2545   187.9853 C5            1 RES     
    9809 C5        -141.1547  -105.3685   189.0425 C5            1 RES     
    9810 C5        -140.2922  -106.0439   190.1940 C5            1 RES     
    9811 C5        -139.6252  -105.1851   191.4568 C5            1 RES     
    9812 C5        -138.2876  -104.2136   191.4332 C5            1 RES     
    9813 C5        -137.3362  -103.5905   192.7698 C5            1 RES     
    9814 C5        -137.4414  -102.2031   193.7568 C5            1 RES     
    9815 C5        -136.6455  -101.4759   195.1997 C5            1 RES     
    9816 C5        -135.2488  -100.4450   195.6010 C5            1 RES     
    9817 C5        -134.3303  -100.8393   194.3070 C5            1 RES     
    9818 C5        -133.9775  -102.3618   193.9807 C5            1 RES     
    9819 C5        -133.5624  -102.6725   192.4775 C5            1 RES     
    9820 C5        -133.0398  -104.1328   192.1935 C5            1 RES     
    9821 C5        -131.9133  -104.5927   193.1446 C5            1 RES     
    9822 C5        -130.7037  -103.6289   193.2082 C5            1 RES     
    9823 C5        -129.3840  -104.1611   192.6377 C5            1 RES     
    9824 C5        -129.4313  -104.5329   191.1597 C5            1 RES     
    9825 C5        -134.5234   -99.3952   197.1086 C5            1 RES     
    9826 C0        -134.3285   -99.1347   199.0388 C0            1 RES     
    9827 C5        -134.2939  -100.6069   199.5231 C5            1 RES     
    9828 C5        -135.3191  -101.6190   198.8159 C5            1 RES     
    9829 C5        -136.7211  -101.6065   199.4491 C5            1 RES     
    9830 C5        -137.4059  -100.2336   199.6406 C5            1 RES     
    9831 C5        -137.5077   -99.3471   198.3803 C5            1 RES     
    9832 C5        -138.4695   -98.1726   198.5041 C5            1 RES     
    9833 C5        -138.1624   -97.2939   199.7172 C5            1 RES     
    9834 C5        -139.2854   -96.2877   199.9471 C5            1 RES     
    9835 C5        -139.1191   -95.6562   201.3226 C5            1 RES     
    9836 C5        -140.2992   -94.7989   201.7187 C5            1 RES     
    9837 C5        -134.7112  -103.0589   198.7074 C5            1 RES     
    9838 C5        -135.2650  -104.1345   197.6958 C5            1 RES     
    9839 C5        -136.5972  -104.9001   197.9222 C5            1 RES     
    9840 C5        -136.6544  -105.5747   199.2988 C5            1 RES     
    9841 C5        -137.8052  -106.5960   199.4435 C5            1 RES     
    9842 C5        -138.0599  -106.9675   200.9211 C5            1 RES     
    9843 C5        -136.8544  -107.5433   201.6933 C5            1 RES     
    9844 C5        -136.3706  -108.9290   201.2269 C5            1 RES     
    9845 C5        -137.4099  -110.0594   201.3629 C5            1 RES     
    9846 C5        -137.8859  -110.2789   202.8016 C5            1 RES     
    9847 H6        -144.4840  -106.7137   186.6063 H6            1 RES     
    9848 H6        -143.6331  -108.2996   186.7117 H6            1 RES     
    9849 H6        -145.0934  -107.9824   187.7029 H6            1 RES     
    9850 H6        -143.9293  -106.2209   188.9896 H6            1 RES     
    9851 H6        -143.0513  -107.7924   189.1549 H6            1 RES     
    9852 H6        -141.3343  -106.9984   187.4623 H6            1 RES     
    9853 H6        -142.3283  -105.5447   187.1987 H6            1 RES     
    9854 H6        -141.8986  -104.6875   189.4995 H6            1 RES     
    9855 H6        -140.4475  -104.7666   188.4373 H6            1 RES     
    9856 H6        -139.5324  -106.6981   189.7048 H6            1 RES     
    9857 H6        -141.0215  -106.7524   190.6549 H6            1 RES     
    9858 H6        -139.3416  -106.0144   192.1422 H6            1 RES     
    9859 H6        -140.4662  -104.6427   191.9221 H6            1 RES     
    9860 H6        -137.5873  -104.9137   190.9128 H6            1 RES     
    9861 H6        -138.4737  -103.4125   190.6887 H6            1 RES     
    9862 H6        -136.3668  -103.4813   192.2407 H6            1 RES     
    9863 H6        -137.2187  -104.4959   193.4030 H6            1 RES     
    9864 H6        -137.5393  -101.3797   193.0197 H6            1 RES     
    9865 H6        -138.4626  -102.3965   194.1436 H6            1 RES     
    9866 H6        -136.6264  -102.3226   195.8926 H6            1 RES     
    9867 H6        -137.4752  -100.8397   195.5350 H6            1 RES     
    9868 H6        -135.6374   -99.5176   195.1237 H6            1 RES     
    9869 H6        -133.4361  -100.1942   194.1929 H6            1 RES     
    9870 H6        -134.9605  -100.5818   193.4149 H6            1 RES     
    9871 H6        -134.8377  -103.0344   194.1683 H6            1 RES     
    9872 H6        -133.1617  -102.6462   194.6632 H6            1 RES     
    9873 H6        -132.7958  -101.9557   192.1389 H6            1 RES     
    9874 H6        -134.4153  -102.5035   191.7796 H6            1 RES     
    9875 H6        -132.6797  -104.2107   191.1391 H6            1 RES     
    9876 H6        -133.8734  -104.8668   192.2891 H6            1 RES     
    9877 H6        -132.3753  -104.6465   194.1498 H6            1 RES     
    9878 H6        -131.5846  -105.6371   192.9364 H6            1 RES     
    9879 H6        -130.9226  -102.6508   192.7488 H6            1 RES     
    9880 H6        -130.5087  -103.4205   194.2810 H6            1 RES     
    9881 H6        -129.0604  -105.0467   193.2238 H6            1 RES     
    9882 H6        -128.6242  -103.3593   192.7722 H6            1 RES     
    9883 H6        -129.7504  -103.6683   190.5420 H6            1 RES     
    9884 H6        -128.4113  -104.8408   190.8410 H6            1 RES     
    9885 H6        -130.1186  -105.3875   190.9934 H6            1 RES     
    9886 H6        -134.9286   -98.3924   196.8417 H6            1 RES     
    9887 H6        -133.4787   -99.2605   196.7569 H6            1 RES     
    9888 H6        -133.2556  -100.9067   199.2838 H6            1 RES     
    9889 H6        -134.4261  -100.6415   200.6224 H6            1 RES     
    9890 H6        -135.4723  -101.3797   197.7803 H6            1 RES     
    9891 H6        -137.3822  -102.2256   198.8172 H6            1 RES     
    9892 H6        -136.6586  -102.0788   200.4477 H6            1 RES     
    9893 H6        -138.4311  -100.4511   200.0061 H6            1 RES     
    9894 H6        -136.8603   -99.6822   200.4349 H6            1 RES     
    9895 H6        -136.5592   -98.8831   198.1944 H6            1 RES     
    9896 H6        -137.8089   -99.9475   197.5070 H6            1 RES     
    9897 H6        -138.4209   -97.5538   197.5780 H6            1 RES     
    9898 H6        -139.4886   -98.5975   198.5948 H6            1 RES     
    9899 H6        -138.1366   -97.9423   200.6132 H6            1 RES     
    9900 H6        -137.1744   -96.7888   199.6174 H6            1 RES     
    9901 H6        -139.2969   -95.5159   199.1460 H6            1 RES     
    9902 H6        -140.2494   -96.8380   199.9417 H6            1 RES     
    9903 H6        -138.2239   -95.0205   201.2977 H6            1 RES     
    9904 H6        -139.0179   -96.4609   202.0894 H6            1 RES     
    9905 H6        -140.3918   -93.9436   201.0207 H6            1 RES     
    9906 H6        -140.1312   -94.4216   202.7503 H6            1 RES     
    9907 H6        -141.2260   -95.4096   201.7073 H6            1 RES     
    9908 H6        -134.5924  -103.4979   199.7141 H6            1 RES     
    9909 H6        -133.6915  -102.8849   198.2949 H6            1 RES     
    9910 H6        -135.2598  -103.7329   196.6648 H6            1 RES     
    9911 H6        -134.4933  -104.9346   197.6784 H6            1 RES     
    9912 H6        -137.4883  -104.2549   197.7754 H6            1 RES     
    9913 H6        -136.6470  -105.6934   197.1374 H6            1 RES     
    9914 H6        -136.7742  -104.7617   200.0435 H6            1 RES     
    9915 H6        -135.7026  -106.1156   199.4863 H6            1 RES     
    9916 H6        -137.5925  -107.5049   198.8345 H6            1 RES     
    9917 H6        -138.7510  -106.1534   199.0617 H6            1 RES     
    9918 H6        -138.9213  -107.6649   200.9908 H6            1 RES     
    9919 H6        -138.3634  -106.0321   201.4388 H6            1 RES     
    9920 H6        -137.1252  -107.6042   202.7670 H6            1 RES     
    9921 H6        -136.0069  -106.8295   201.6363 H6            1 RES     
    9922 H6        -136.0407  -108.8682   200.1685 H6            1 RES     
    9923 H6        -135.4821  -109.2025   201.8385 H6            1 RES     
    9924 H6        -138.2855  -109.8599   200.7117 H6            1 RES     
    9925 H6        -136.9368  -111.0022   201.0118 H6            1 RES     
    9926 H6        -137.0245  -110.5008   203.4673 H6            1 RES     
    9927 H6        -138.4279  -109.3903   203.1850 H6            1 RES     
    9928 H6        -138.5878  -111.1387   202.8323 H6            1 RES     
    9929 C0        -131.1797   -90.2971   211.7556 C0            1 RES     
    9930 C0        -132.9190   -90.8260   211.4146 C0            1 RES     
    9931 C0        -133.1335   -92.0652   212.0045 C0            1 RES     
    9932 S1        -134.5757   -92.8788   211.5465 S1            1 RES     
    9933 C0        -135.2701   -91.8283   210.4651 C0            1 RES     
    9934 C0        -134.2271   -90.6750   210.5075 C0            1 RES     
    9935 C0        -131.8845   -92.7068   212.4167 C0            1 RES     
    9936 C0        -130.9865   -91.8302   211.5590 C0            1 RES     
    9937 C0        -130.7219   -92.4212   210.3620 C0            1 RES     
    9938 C0        -131.1629   -93.7359   210.2327 C0            1 RES     
    9939 S1        -131.9012   -94.3992   211.7009 S1            1 RES     
    9940 H2        -134.3765   -89.8650   209.8037 H2            1 RES     
    9941 H2        -130.3899   -91.8786   209.4920 H2            1 RES     
    9942 N3        -138.0404   -94.4986   209.3935 N3            1 RES     
    9943 C0        -136.9643   -93.8555   209.8718 C0            1 RES     
    9944 C0        -136.6875   -92.4136   209.7438 C0            1 RES     
    9945 C0        -137.7979   -91.8013   208.9846 C0            1 RES     
    9946 N3        -137.8930   -90.4738   208.6565 N3            1 RES     
    9947 S1        -139.3457   -90.3696   207.8478 S1            1 RES     
    9948 N3        -139.9060   -91.9239   207.8362 N3            1 RES     
    9949 C0        -138.9414   -92.5769   208.4983 C0            1 RES     
    9950 C0        -139.0633   -93.9302   208.6977 C0            1 RES     
    9951 H4        -136.2776   -94.5019   210.3715 H4            1 RES     
    9952 C5        -116.6843   -86.6125   224.1056 C5            1 RES     
    9953 C5        -117.9803   -86.7962   223.2659 C5            1 RES     
    9954 C5        -117.9004   -86.1698   221.8351 C5            1 RES     
    9955 C5        -119.0356   -86.5541   220.7664 C5            1 RES     
    9956 C5        -120.5056   -85.9588   220.8712 C5            1 RES     
    9957 C5        -121.7795   -86.5072   219.9472 C5            1 RES     
    9958 C5        -122.0879   -86.1979   218.3526 C5            1 RES     
    9959 C5        -123.5662   -86.4300   217.4356 C5            1 RES     
    9960 C5        -124.2322   -87.7392   216.5682 C5            1 RES     
    9961 C5        -125.7376   -88.1822   215.6842 C5            1 RES     
    9962 C5        -126.4502   -88.0254   214.0587 C5            1 RES     
    9963 C5        -125.6416   -86.6754   213.6146 C5            1 RES     
    9964 C5        -125.6935   -85.3531   214.5078 C5            1 RES     
    9965 C5        -124.5005   -84.3235   214.2956 C5            1 RES     
    9966 C5        -124.6424   -82.9399   215.0384 C5            1 RES     
    9967 C5        -125.9890   -82.2271   214.7864 C5            1 RES     
    9968 C5        -126.3336   -82.0325   213.2899 C5            1 RES     
    9969 C5        -126.3557   -80.5856   212.7835 C5            1 RES     
    9970 C5        -125.0308   -79.8427   212.9156 C5            1 RES     
    9971 C5        -127.9422   -88.7441   212.9822 C5            1 RES     
    9972 C0        -129.7535   -89.4811   212.8960 C0            1 RES     
    9973 C5        -130.4327   -88.7045   214.0530 C5            1 RES     
    9974 C5        -129.5671   -88.5073   215.3899 C5            1 RES     
    9975 C5        -129.6512   -89.7049   216.3517 C5            1 RES     
    9976 C5        -129.3794   -91.1104   215.7675 C5            1 RES     
    9977 C5        -128.0478   -91.2793   215.0038 C5            1 RES     
    9978 C5        -127.6447   -92.7240   214.7389 C5            1 RES     
    9979 C5        -128.7418   -93.5126   214.0232 C5            1 RES     
    9980 C5        -128.4044   -94.9999   214.0019 C5            1 RES     
    9981 C5        -129.6383   -95.7881   213.5839 C5            1 RES     
    9982 C5        -129.4563   -97.2812   213.7326 C5            1 RES     
    9983 C5        -129.8982   -87.1424   216.0843 C5            1 RES     
    9984 C5        -128.9287   -86.4716   217.1317 C5            1 RES     
    9985 C5        -128.7786   -86.9812   218.5910 C5            1 RES     
    9986 C5        -130.1292   -87.0975   219.3091 C5            1 RES     
    9987 C5        -130.0065   -87.2917   220.8373 C5            1 RES     
    9988 C5        -131.3348   -87.7714   221.4631 C5            1 RES     
    9989 C5        -132.5617   -86.8659   221.2269 C5            1 RES     
    9990 C5        -132.5105   -85.4893   221.9155 C5            1 RES     
    9991 C5        -132.4355   -85.5353   223.4545 C5            1 RES     
    9992 C5        -133.6267   -86.2480   224.1010 C5            1 RES     
    9993 H6        -115.8056   -87.0893   223.6140 H6            1 RES     
    9994 H6        -116.4422   -85.5442   224.2908 H6            1 RES     
    9995 H6        -116.7905   -87.1052   225.1019 H6            1 RES     
    9996 H6        -118.1282   -87.8927   223.1772 H6            1 RES     
    9997 H6        -118.8276   -86.3602   223.8330 H6            1 RES     
    9998 H6        -117.7574   -85.0694   221.9273 H6            1 RES     
    9999 H6        -116.9437   -86.5708   221.4230 H6            1 RES     
   10000 H6        -119.0912   -87.6599   220.7786 H6            1 RES     
   10001 H6        -118.6386   -86.2297   219.7836 H6            1 RES     
   10002 H6        -120.4220   -84.8474   220.8244 H6            1 RES     
   10003 H6        -120.7776   -86.1783   221.9314 H6            1 RES     
   10004 H6        -122.6366   -86.0400   220.4811 H6            1 RES     
   10005 H6        -121.8288   -87.5948   220.1277 H6            1 RES     
   10006 H6        -121.9613   -85.0867   218.3749 H6            1 RES     
   10007 H6        -121.2151   -86.5591   217.7707 H6            1 RES     
   10008 H6        -123.4061   -85.6429   216.6698 H6            1 RES     
   10009 H6        -124.3275   -86.0092   218.1269 H6            1 RES     
   10010 H6        -123.3941   -88.0569   215.9141 H6            1 RES     
   10011 H6        -124.2550   -88.4565   217.4136 H6            1 RES     
   10012 H6        -126.5103   -87.8876   216.4008 H6            1 RES     
   10013 H6        -125.6570   -89.2738   215.7703 H6            1 RES     
   10014 H6        -125.7331   -88.7025   213.5426 H6            1 RES     
   10015 H6        -125.7578   -86.4301   212.5399 H6            1 RES     
   10016 H6        -124.5560   -86.9427   213.7114 H6            1 RES     
   10017 H6        -125.6614   -85.5848   215.5908 H6            1 RES     
   10018 H6        -126.6557   -84.8654   214.2876 H6            1 RES     
   10019 H6        -124.3533   -84.1287   213.2202 H6            1 RES     
   10020 H6        -123.5281   -84.7582   214.6254 H6            1 RES     
   10021 H6        -123.8091   -82.2591   214.7390 H6            1 RES     
   10022 H6        -124.5441   -83.0810   216.1398 H6            1 RES     
   10023 H6        -126.7604   -82.8765   215.2449 H6            1 RES     
   10024 H6        -126.0699   -81.2665   215.3457 H6            1 RES     
   10025 H6        -125.6857   -82.6321   212.6293 H6            1 RES     
   10026 H6        -127.3616   -82.4231   213.1383 H6            1 RES     
   10027 H6        -127.1439   -80.0192   213.3224 H6            1 RES     
   10028 H6        -126.6301   -80.6220   211.7057 H6            1 RES     
   10029 H6        -124.2182   -80.3812   212.3857 H6            1 RES     
   10030 H6        -125.1452   -78.8344   212.4605 H6            1 RES     
   10031 H6        -124.7607   -79.7118   213.9834 H6            1 RES     
   10032 H6        -127.4021   -89.5570   212.4451 H6            1 RES     
   10033 H6        -127.9689   -87.9865   212.1706 H6            1 RES     
   10034 H6        -130.6257   -87.7178   213.5898 H6            1 RES     
   10035 H6        -131.4052   -89.1749   214.2981 H6            1 RES     
   10036 H6        -128.5213   -88.3845   215.1789 H6            1 RES     
   10037 H6        -128.9257   -89.5346   217.1668 H6            1 RES     
   10038 H6        -130.6654   -89.7289   216.7933 H6            1 RES     
   10039 H6        -129.3848   -91.8073   216.6313 H6            1 RES     
   10040 H6        -130.2237   -91.3762   215.0974 H6            1 RES     
   10041 H6        -128.1440   -90.8560   214.0235 H6            1 RES     
   10042 H6        -127.2247   -90.7865   215.5457 H6            1 RES     
   10043 H6        -126.7149   -92.7431   214.1239 H6            1 RES     
   10044 H6        -127.4297   -93.1853   215.7229 H6            1 RES     
   10045 H6        -129.6747   -93.4130   214.6095 H6            1 RES     
   10046 H6        -128.9254   -93.1199   212.9968 H6            1 RES     
   10047 H6        -127.5459   -95.2026   213.3242 H6            1 RES     
   10048 H6        -128.1390   -95.3093   215.0344 H6            1 RES     
   10049 H6        -129.8385   -95.5688   212.5265 H6            1 RES     
   10050 H6        -130.5021   -95.4910   214.2252 H6            1 RES     
   10051 H6        -128.6515   -97.6296   213.0557 H6            1 RES     
   10052 H6        -130.4114   -97.7819   213.4648 H6            1 RES     
   10053 H6        -129.2076   -97.5247   214.7867 H6            1 RES     
   10054 H6        -130.9348   -87.1519   216.4656 H6            1 RES     
   10055 H6        -129.8540   -86.4045   215.2513 H6            1 RES     
   10056 H6        -127.9193   -86.3448   216.6967 H6            1 RES     
   10057 H6        -129.3065   -85.4323   217.2461 H6            1 RES     
   10058 H6        -128.2300   -87.9443   218.6505 H6            1 RES     
   10059 H6        -128.1553   -86.2272   219.1302 H6            1 RES     
   10060 H6        -130.6523   -87.9652   218.8583 H6            1 RES     
   10061 H6        -130.7214   -86.1738   219.1366 H6            1 RES     
   10062 H6        -129.6559   -86.3495   221.3185 H6            1 RES     
   10063 H6        -129.2519   -88.0783   221.0570 H6            1 RES     
   10064 H6        -131.1972   -87.9451   222.5513 H6            1 RES     
   10065 H6        -131.5648   -88.7590   221.0085 H6            1 RES     
   10066 H6        -133.4653   -87.4051   221.5773 H6            1 RES     
   10067 H6        -132.7037   -86.7168   220.1368 H6            1 RES     
   10068 H6        -131.6420   -84.9153   221.5294 H6            1 RES     
   10069 H6        -133.4315   -84.9328   221.6319 H6            1 RES     
   10070 H6        -131.4937   -86.0218   223.7814 H6            1 RES     
   10071 H6        -132.4206   -84.4879   223.8271 H6            1 RES     
   10072 H6        -134.5801   -85.7624   223.8020 H6            1 RES     
   10073 H6        -133.6549   -87.3200   223.8176 H6            1 RES     
   10074 H6        -133.5340   -86.1958   225.2062 H6            1 RES     
   10075 C0        -141.2855   -97.5613   205.7225 C0            1 RES     
   10076 C0        -140.4317   -98.2914   207.1920 C0            1 RES     
   10077 C0        -141.0850   -97.8708   208.3434 C0            1 RES     
   10078 S1        -140.2714   -98.1752   209.8257 S1            1 RES     
   10079 C0        -138.8698   -98.9181   209.3371 C0            1 RES     
   10080 C0        -139.1073   -98.9493   207.8001 C0            1 RES     
   10081 C0        -142.0052   -96.7624   208.0856 C0            1 RES     
   10082 C0        -141.4019   -96.3888   206.7414 C0            1 RES     
   10083 C0        -140.4797   -95.3970   206.8757 C0            1 RES     
   10084 C0        -140.4002   -94.8206   208.1411 C0            1 RES     
   10085 S1        -141.5916   -95.4430   209.2959 S1            1 RES     
   10086 H2        -138.2838   -99.3058   207.1931 H2            1 RES     
   10087 H2        -139.7139   -95.1947   206.1449 H2            1 RES     
   10088 N3        -137.2956   -98.7329   213.0033 N3            1 RES     
   10089 C0        -138.0233   -98.5785   211.8866 C0            1 RES     
   10090 C0        -137.7881   -99.2534   210.5977 C0            1 RES     
   10091 C0        -136.6014  -100.1217   210.7470 C0            1 RES     
   10092 N3        -136.0665  -100.9054   209.7577 N3            1 RES     
   10093 S1        -134.7884  -101.6686   210.5057 S1            1 RES     
   10094 N3        -134.8110  -101.0653   212.0438 N3            1 RES     
   10095 C0        -135.8622  -100.2356   212.0065 C0            1 RES     
   10096 C0        -136.2051   -99.5368   213.1379 C0            1 RES     
   10097 H4        -138.8250   -97.8835   212.0016 H4            1 RES     
   10098 C5        -157.2817   -94.4962   195.1895 C5            1 RES     
   10099 C5        -156.0738   -94.9591   196.0529 C5            1 RES     
   10100 C5        -154.6883   -94.7771   195.3504 C5            1 RES     
   10101 C5        -153.3562   -94.9195   196.2356 C5            1 RES     
   10102 C5        -152.8415   -96.3387   196.7329 C5            1 RES     
   10103 C5        -151.6182   -96.5252   197.8490 C5            1 RES     
   10104 C5        -149.9910   -96.3483   197.6153 C5            1 RES     
   10105 C5        -148.6542   -96.8769   198.6221 C5            1 RES     
   10106 C5        -147.8128   -96.1879   199.9364 C5            1 RES     
   10107 C5        -146.5284   -96.6139   201.1249 C5            1 RES     
   10108 C5        -144.7518   -96.6057   201.2612 C5            1 RES     
   10109 C5        -144.4277   -96.7435   199.6644 C5            1 RES     
   10110 C5        -145.0358   -97.9409   198.8010 C5            1 RES     
   10111 C5        -145.1101   -97.6983   197.2313 C5            1 RES     
   10112 C5        -145.5383   -98.9410   196.3603 C5            1 RES     
   10113 C5        -144.7207  -100.2197   196.6458 C5            1 RES     
   10114 C5        -143.1883  -100.0310   196.5344 C5            1 RES     
   10115 C5        -142.4969  -100.7751   195.3860 C5            1 RES     
   10116 C5        -142.9787  -100.3871   193.9923 C5            1 RES     
   10117 C5        -143.3358   -96.7779   202.6272 C5            1 RES     
   10118 C0        -142.7227   -97.5189   204.3321 C0            1 RES     
   10119 C5        -143.4327   -98.8969   204.3160 C5            1 RES     
   10120 C5        -144.9444   -98.9185   203.7777 C5            1 RES     
   10121 C5        -145.9810   -98.5710   204.8600 C5            1 RES     
   10122 C5        -145.7486   -97.2837   205.6842 C5            1 RES     
   10123 C5        -145.5425   -95.9876   204.8703 C5            1 RES     
   10124 C5        -145.6571   -94.7025   205.6797 C5            1 RES     
   10125 C5        -144.7247   -94.6926   206.8915 C5            1 RES     
   10126 C5        -145.0473   -93.5146   207.8051 C5            1 RES     
   10127 C5        -144.3408   -93.7072   209.1401 C5            1 RES     
   10128 C5        -144.7659   -92.6938   210.1780 C5            1 RES     
   10129 C5        -145.2635  -100.2610   203.0356 C5            1 RES     
   10130 C5        -146.4742  -100.4050   202.0355 C5            1 RES     
   10131 C5        -147.9502  -100.5140   202.5060 C5            1 RES     
   10132 C5        -148.1502  -101.6263   203.5434 C5            1 RES     
   10133 C5        -149.6329  -101.9784   203.7999 C5            1 RES     
   10134 C5        -149.8099  -102.8121   205.0882 C5            1 RES     
   10135 C5        -149.0206  -104.1364   205.1528 C5            1 RES     
   10136 C5        -149.4684  -105.2229   204.1573 C5            1 RES     
   10137 C5        -150.9220  -105.7052   204.3328 C5            1 RES     
   10138 C5        -151.2017  -106.3055   205.7134 C5            1 RES     
   10139 H6        -157.2116   -93.4147   194.9319 H6            1 RES     
   10140 H6        -157.3789   -95.0734   194.2454 H6            1 RES     
   10141 H6        -158.2368   -94.6218   195.7539 H6            1 RES     
   10142 H6        -156.1033   -94.3350   196.9703 H6            1 RES     
   10143 H6        -156.2307   -96.0209   196.3308 H6            1 RES     
   10144 H6        -154.6597   -95.4082   194.4335 H6            1 RES     
   10145 H6        -154.7081   -93.7191   194.9950 H6            1 RES     
   10146 H6        -153.5130   -94.2634   197.1136 H6            1 RES     
   10147 H6        -152.5420   -94.4938   195.6155 H6            1 RES     
   10148 H6        -152.6620   -96.9666   195.8285 H6            1 RES     
   10149 H6        -153.7559   -96.7736   197.2029 H6            1 RES     
   10150 H6        -151.7363   -97.6014   198.1055 H6            1 RES     
   10151 H6        -151.9298   -95.9378   198.7299 H6            1 RES     
   10152 H6        -149.8905   -96.9720   196.6921 H6            1 RES     
   10153 H6        -149.8183   -95.3109   197.2624 H6            1 RES     
   10154 H6        -147.8869   -96.9848   197.8277 H6            1 RES     
   10155 H6        -148.9586   -97.9159   198.8720 H6            1 RES     
   10156 H6        -147.5546   -95.1753   199.5637 H6            1 RES     
   10157 H6        -148.6921   -96.0595   200.6000 H6            1 RES     
   10158 H6        -146.8709   -97.5902   201.4812 H6            1 RES     
   10159 H6        -146.7996   -95.9007   201.9144 H6            1 RES     
   10160 H6        -144.6317   -95.4991   201.2558 H6            1 RES     
   10161 H6        -143.3581   -96.5850   199.4204 H6            1 RES     
   10162 H6        -144.9428   -95.8680   199.1875 H6            1 RES     
   10163 H6        -146.0811   -98.1686   199.0893 H6            1 RES     
   10164 H6        -144.4178   -98.8262   199.0166 H6            1 RES     
   10165 H6        -144.1410   -97.3277   196.8577 H6            1 RES     
   10166 H6        -145.8250   -96.8797   196.9823 H6            1 RES     
   10167 H6        -145.4565   -98.6921   195.2745 H6            1 RES     
   10168 H6        -146.6106   -99.1874   196.5397 H6            1 RES     
   10169 H6        -144.9666  -100.5043   197.6876 H6            1 RES     
   10170 H6        -145.0645  -101.0863   196.0352 H6            1 RES     
   10171 H6        -142.8986   -98.9678   196.4965 H6            1 RES     
   10172 H6        -142.7415  -100.4315   197.4683 H6            1 RES     
   10173 H6        -142.6295  -101.8687   195.5236 H6            1 RES     
   10174 H6        -141.4104  -100.5456   195.4566 H6            1 RES     
   10175 H6        -142.8591   -99.2977   193.8190 H6            1 RES     
   10176 H6        -142.3674  -100.9359   193.2427 H6            1 RES     
   10177 H6        -144.0404  -100.6756   193.8512 H6            1 RES     
   10178 H6        -143.1537   -95.6989   202.8355 H6            1 RES     
   10179 H6        -142.4642   -96.9781   201.9687 H6            1 RES     
   10180 H6        -142.7893   -99.4827   203.6319 H6            1 RES     
   10181 H6        -143.3836   -99.3540   205.3238 H6            1 RES     
   10182 H6        -145.1031   -98.2041   202.9918 H6            1 RES     
   10183 H6        -146.9654   -98.4807   204.3677 H6            1 RES     
   10184 H6        -146.0316   -99.4105   205.5789 H6            1 RES     
   10185 H6        -146.6478   -97.1629   206.3235 H6            1 RES     
   10186 H6        -144.8700   -97.4479   206.3427 H6            1 RES     
   10187 H6        -144.5405   -95.9624   204.4897 H6            1 RES     
   10188 H6        -146.2613   -95.9345   204.0370 H6            1 RES     
   10189 H6        -145.4230   -93.8301   205.0262 H6            1 RES     
   10190 H6        -146.7104   -94.6239   206.0140 H6            1 RES     
   10191 H6        -144.9193   -95.6075   207.4822 H6            1 RES     
   10192 H6        -143.6538   -94.6909   206.5842 H6            1 RES     
   10193 H6        -144.7574   -92.5519   207.3289 H6            1 RES     
   10194 H6        -146.1405   -93.5152   207.9976 H6            1 RES     
   10195 H6        -143.2613   -93.5960   208.9715 H6            1 RES     
   10196 H6        -144.5812   -94.7198   209.5433 H6            1 RES     
   10197 H6        -144.4794   -91.6762   209.8471 H6            1 RES     
   10198 H6        -144.2542   -92.9325   211.1350 H6            1 RES     
   10199 H6        -145.8633   -92.7554   210.3336 H6            1 RES     
   10200 H6        -145.2483  -101.1029   203.7505 H6            1 RES     
   10201 H6        -144.4004  -100.3924   202.3443 H6            1 RES     
   10202 H6        -146.4126   -99.6362   201.2423 H6            1 RES     
   10203 H6        -146.2902  -101.3617   201.4998 H6            1 RES     
   10204 H6        -148.3440   -99.5523   202.8960 H6            1 RES     
   10205 H6        -148.5566  -100.7615   201.6010 H6            1 RES     
   10206 H6        -147.6780  -101.2708   204.4817 H6            1 RES     
   10207 H6        -147.6426  -102.5515   203.1972 H6            1 RES     
   10208 H6        -150.0607  -102.5100   202.9186 H6            1 RES     
   10209 H6        -150.2213  -101.0460   203.9439 H6            1 RES     
   10210 H6        -150.8888  -103.0062   205.2658 H6            1 RES     
   10211 H6        -149.4563  -102.1792   205.9304 H6            1 RES     
   10212 H6        -149.1034  -104.5416   206.1819 H6            1 RES     
   10213 H6        -147.9420  -103.9291   204.9964 H6            1 RES     
   10214 H6        -149.3350  -104.8507   203.1198 H6            1 RES     
   10215 H6        -148.7963  -106.1003   204.2865 H6            1 RES     
   10216 H6        -151.6310  -104.8736   204.1424 H6            1 RES     
   10217 H6        -151.1146  -106.4929   203.5722 H6            1 RES     
   10218 H6        -150.5144  -107.1547   205.9154 H6            1 RES     
   10219 H6        -151.0904  -105.5440   206.5122 H6            1 RES     
   10220 H6        -152.2466  -106.6792   205.7499 H6            1 RES     
   10221 C0        -133.2129   -97.6741   216.9526 C0            1 RES     
   10222 C0        -134.9813   -97.1664   217.1434 C0            1 RES     
   10223 C0        -135.7487   -98.2997   217.3809 C0            1 RES     
   10224 S1        -137.4510   -98.0932   217.2751 S1            1 RES     
   10225 C0        -137.6093   -96.4872   216.8868 C0            1 RES     
   10226 C0        -136.1114   -96.0679   216.8738 C0            1 RES     
   10227 C0        -135.0181   -99.5346   217.0929 C0            1 RES     
   10228 C0        -133.9364   -98.8668   216.2596 C0            1 RES     
   10229 C0        -134.2398   -98.9122   214.9338 C0            1 RES     
   10230 C0        -135.3495   -99.6847   214.5995 C0            1 RES     
   10231 S1        -136.0847  -100.5280   215.9738 S1            1 RES     
   10232 H2        -135.8973   -95.0578   216.5457 H2            1 RES     
   10233 H2        -133.8075   -98.2494   214.2022 H2            1 RES     
   10234 N3        -141.5239   -96.8686   216.1909 N3            1 RES     
   10235 C0        -140.2118   -97.0552   216.4008 C0            1 RES     
   10236 C0        -139.2070   -95.9968   216.6064 C0            1 RES     
   10237 C0        -139.8963   -94.6918   216.5285 C0            1 RES     
   10238 N3        -139.2907   -93.4693   216.6626 N3            1 RES     
   10239 S1        -140.5492   -92.3871   216.5197 S1            1 RES     
   10240 N3        -141.8702   -93.3459   216.2635 N3            1 RES     
   10241 C0        -141.3381   -94.5750   216.2980 C0            1 RES     
   10242 C0        -142.1558   -95.6645   216.1236 C0            1 RES     
   10243 H4        -139.9291   -98.0844   216.3973 H4            1 RES     
   10244 C5        -117.3511  -106.6934   223.5307 C5            1 RES     
   10245 C5        -118.6462  -105.8910   223.2183 C5            1 RES     
   10246 C5        -118.4632  -104.8021   222.1106 C5            1 RES     
   10247 C5        -119.7747  -104.1253   221.4780 C5            1 RES     
   10248 C5        -120.6285  -103.0587   222.2901 C5            1 RES     
   10249 C5        -122.1210  -102.5128   221.7887 C5            1 RES     
   10250 C5        -122.4573  -101.4268   220.5881 C5            1 RES     
   10251 C5        -123.9403  -100.5472   220.2611 C5            1 RES     
   10252 C5        -125.3490  -100.8879   219.3614 C5            1 RES     
   10253 C5        -126.9659  -100.1753   219.0120 C5            1 RES     
   10254 C5        -127.7217   -99.0160   217.8898 C5            1 RES     
   10255 C5        -126.3842   -98.1236   217.5926 C5            1 RES     
   10256 C5        -125.5504   -97.4671   218.7854 C5            1 RES     
   10257 C5        -124.0394   -97.0973   218.4561 C5            1 RES     
   10258 C5        -123.2692   -96.2865   219.5678 C5            1 RES     
   10259 C5        -124.0143   -95.0241   220.0540 C5            1 RES     
   10260 C5        -124.4279   -94.0551   218.9199 C5            1 RES     
   10261 C5        -123.7252   -92.6927   218.9045 C5            1 RES     
   10262 C5        -122.2101   -92.7575   218.7460 C5            1 RES     
   10263 C5        -129.5111   -98.4387   217.2851 C5            1 RES     
   10264 C0        -131.4129   -98.1748   217.6665 C0            1 RES     
   10265 C5        -131.3516   -97.7838   219.1653 C5            1 RES     
   10266 C5        -130.3209   -98.6066   220.0797 C5            1 RES     
   10267 C5        -130.8992   -99.9303   220.6087 C5            1 RES     
   10268 C5        -131.5499  -100.8861   219.5823 C5            1 RES     
   10269 C5        -130.6784  -101.2664   218.3654 C5            1 RES     
   10270 C5        -131.1925  -102.4526   217.5600 C5            1 RES     
   10271 C5        -132.6405  -102.2646   217.1063 C5            1 RES     
   10272 C5        -133.1927  -103.5633   216.5277 C5            1 RES     
   10273 C5        -134.7044  -103.4468   216.3872 C5            1 RES     
   10274 C5        -135.3595  -104.7570   216.0144 C5            1 RES     
   10275 C5        -129.7234   -97.7052   221.2134 C5            1 RES     
   10276 C5        -128.3918   -98.0762   221.9725 C5            1 RES     
   10277 C5        -128.3177   -99.1883   223.0540 C5            1 RES     
   10278 C5        -129.3701   -99.0015   224.1545 C5            1 RES     
   10279 C5        -129.1324   -99.8863   225.3990 C5            1 RES     
   10280 C5        -130.3828   -99.9516   226.3036 C5            1 RES     
   10281 C5        -130.9208   -98.5991   226.8156 C5            1 RES     
   10282 C5        -130.0055   -97.8548   227.8057 C5            1 RES     
   10283 C5        -129.7229   -98.6078   229.1208 C5            1 RES     
   10284 C5        -130.9871   -98.9245   229.9246 C5            1 RES     
   10285 H6        -116.9766  -107.2346   222.6319 H6            1 RES     
   10286 H6        -116.5317  -106.0501   223.9162 H6            1 RES     
   10287 H6        -117.5512  -107.4733   224.3042 H6            1 RES     
   10288 H6        -119.3889  -106.6408   222.8747 H6            1 RES     
   10289 H6        -119.0055  -105.4290   224.1600 H6            1 RES     
   10290 H6        -117.7216  -104.0486   222.4602 H6            1 RES     
   10291 H6        -117.9701  -105.3541   221.2750 H6            1 RES     
   10292 H6        -120.4310  -104.9680   221.1863 H6            1 RES     
   10293 H6        -119.4282  -103.6110   220.5592 H6            1 RES     
   10294 H6        -119.9517  -102.2086   222.5426 H6            1 RES     
   10295 H6        -120.8023  -103.5808   223.2614 H6            1 RES     
   10296 H6        -122.4765  -102.0074   222.7139 H6            1 RES     
   10297 H6        -122.7352  -103.4189   221.6483 H6            1 RES     
   10298 H6        -121.7343  -100.6266   220.8854 H6            1 RES     
   10299 H6        -122.0379  -101.8351   219.6457 H6            1 RES     
   10300 H6        -123.4961   -99.6641   219.7567 H6            1 RES     
   10301 H6        -124.2180  -100.1902   221.2760 H6            1 RES     
   10302 H6        -124.9456  -101.2149   218.3810 H6            1 RES     
   10303 H6        -125.6297  -101.8126   219.9055 H6            1 RES     
   10304 H6        -127.3187   -99.9229   220.0166 H6            1 RES     
   10305 H6        -127.4913  -101.0999   218.7390 H6            1 RES     
   10306 H6        -127.5941   -99.6310   216.9708 H6            1 RES     
   10307 H6        -126.5154   -97.4034   216.7602 H6            1 RES     
   10308 H6        -125.6302   -98.8544   217.1967 H6            1 RES     
   10309 H6        -125.4789   -98.1432   219.6603 H6            1 RES     
   10310 H6        -126.1012   -96.5642   219.0911 H6            1 RES     
   10311 H6        -123.9836   -96.5324   217.5106 H6            1 RES     
   10312 H6        -123.4332   -98.0121   218.2587 H6            1 RES     
   10313 H6        -122.2592   -95.9908   219.1934 H6            1 RES     
   10314 H6        -123.0905   -96.9293   220.4607 H6            1 RES     
   10315 H6        -124.9307   -95.3933   220.5548 H6            1 RES     
   10316 H6        -123.4582   -94.4884   220.8576 H6            1 RES     
   10317 H6        -124.3370   -94.5150   217.9219 H6            1 RES     
   10318 H6        -125.5083   -93.8382   219.0539 H6            1 RES     
   10319 H6        -123.9685   -92.1427   219.8377 H6            1 RES     
   10320 H6        -124.1423   -92.1208   218.0459 H6            1 RES     
   10321 H6        -121.9299   -93.3006   217.8199 H6            1 RES     
   10322 H6        -121.8177   -91.7189   218.6820 H6            1 RES     
   10323 H6        -121.7457   -93.2494   219.6251 H6            1 RES     
   10324 H6        -129.6068   -99.0721   216.3737 H6            1 RES     
   10325 H6        -129.2432   -97.4757   216.8011 H6            1 RES     
   10326 H6        -131.0366   -96.7237   219.1169 H6            1 RES     
   10327 H6        -132.3673   -97.8298   219.6050 H6            1 RES     
   10328 H6        -129.4325   -98.8790   219.5412 H6            1 RES     
   10329 H6        -130.0815  -100.4803   221.1073 H6            1 RES     
   10330 H6        -131.6700   -99.6974   221.3674 H6            1 RES     
   10331 H6        -131.8021  -101.8108   220.1419 H6            1 RES     
   10332 H6        -132.4943  -100.4225   219.2275 H6            1 RES     
   10333 H6        -130.6796  -100.4583   217.6607 H6            1 RES     
   10334 H6        -129.6462  -101.4867   218.6812 H6            1 RES     
   10335 H6        -130.5423  -102.6048   216.6672 H6            1 RES     
   10336 H6        -131.1148  -103.3444   218.2127 H6            1 RES     
   10337 H6        -133.2531  -102.0355   217.9985 H6            1 RES     
   10338 H6        -132.7373  -101.4213   216.3846 H6            1 RES     
   10339 H6        -132.7125  -103.7992   215.5524 H6            1 RES     
   10340 H6        -132.9819  -104.3805   217.2488 H6            1 RES     
   10341 H6        -134.9159  -102.7175   215.5938 H6            1 RES     
   10342 H6        -135.1423  -103.1188   217.3600 H6            1 RES     
   10343 H6        -135.0039  -105.0831   215.0172 H6            1 RES     
   10344 H6        -136.4600  -104.6063   215.9868 H6            1 RES     
   10345 H6        -135.1223  -105.5251   216.7799 H6            1 RES     
   10346 H6        -130.5142   -97.4243   221.9316 H6            1 RES     
   10347 H6        -129.4119   -96.7795   220.6785 H6            1 RES     
   10348 H6        -127.5669   -98.2298   221.2513 H6            1 RES     
   10349 H6        -128.1059   -97.1502   222.5173 H6            1 RES     
   10350 H6        -128.3939  -100.2076   222.6213 H6            1 RES     
   10351 H6        -127.3042   -99.1155   223.5180 H6            1 RES     
   10352 H6        -130.3505   -99.2464   223.6978 H6            1 RES     
   10353 H6        -129.3693   -97.9434   224.4922 H6            1 RES     
   10354 H6        -128.2466   -99.5207   225.9682 H6            1 RES     
   10355 H6        -128.9168  -100.9302   225.0826 H6            1 RES     
   10356 H6        -130.1922  -100.6314   227.1608 H6            1 RES     
   10357 H6        -131.1910  -100.4177   225.6998 H6            1 RES     
   10358 H6        -131.9015   -98.7759   227.3025 H6            1 RES     
   10359 H6        -131.1289   -97.9356   225.9511 H6            1 RES     
   10360 H6        -129.0400   -97.6195   227.3106 H6            1 RES     
   10361 H6        -130.4947   -96.8883   228.0603 H6            1 RES     
   10362 H6        -129.1710   -99.5482   228.9170 H6            1 RES     
   10363 H6        -129.0704   -97.9638   229.7496 H6            1 RES     
   10364 H6        -131.5446   -97.9921   230.1571 H6            1 RES     
   10365 H6        -131.6499   -99.6216   229.3721 H6            1 RES     
   10366 H6        -130.7053   -99.4160   230.8796 H6            1 RES     
   10367 C0        -146.4606   -96.1907   213.2658 C0            1 RES     
   10368 C0        -145.9323   -97.7899   214.0305 C0            1 RES     
   10369 C0        -146.0481   -97.6853   215.4108 C0            1 RES     
   10370 S1        -145.3146   -98.9407   216.3262 S1            1 RES     
   10371 C0        -144.6600   -99.9215   215.1580 C0            1 RES     
   10372 C0        -145.1177   -99.1579   213.8824 C0            1 RES     
   10373 C0        -146.2266   -96.3005   215.8491 C0            1 RES     
   10374 C0        -145.7423   -95.6783   214.5496 C0            1 RES     
   10375 C0        -144.4179   -95.3724   214.6153 C0            1 RES     
   10376 C0        -143.8305   -95.5206   215.8694 C0            1 RES     
   10377 S1        -144.9633   -95.9928   217.1477 S1            1 RES     
   10378 H2        -144.7401   -99.5296   212.9375 H2            1 RES     
   10379 H2        -143.7975   -95.2281   213.7459 H2            1 RES     
   10380 N3        -142.6837  -102.1019   217.8587 N3            1 RES     
   10381 C0        -143.3715  -101.1639   217.1897 C0            1 RES     
   10382 C0        -143.7602  -101.2209   215.7693 C0            1 RES     
   10383 C0        -143.2484  -102.4881   215.2066 C0            1 RES     
   10384 N3        -143.4046  -102.8954   213.9071 N3            1 RES     
   10385 S1        -142.6638  -104.3871   213.8687 S1            1 RES     
   10386 N3        -142.1011  -104.5906   215.4089 N3            1 RES     
   10387 C0        -142.5058  -103.4631   216.0088 C0            1 RES     
   10388 C0        -142.2171  -103.2699   217.3375 C0            1 RES     
   10389 H4        -143.6226  -100.3192   217.7919 H4            1 RES     
   10390 C5        -159.5153   -82.0557   210.8184 C5            1 RES     
   10391 C5        -158.6469   -83.3336   210.9955 C5            1 RES     
   10392 C5        -157.5272   -83.4914   209.9151 C5            1 RES     
   10393 C5        -156.3762   -84.5842   210.1590 C5            1 RES     
   10394 C5        -156.6627   -86.1386   209.9914 C5            1 RES     
   10395 C5        -155.5880   -87.3203   210.4664 C5            1 RES     
   10396 C5        -154.1984   -87.7972   209.7078 C5            1 RES     
   10397 C5        -153.2382   -89.2471   209.9443 C5            1 RES     
   10398 C5        -151.9583   -89.6658   210.9915 C5            1 RES     
   10399 C5        -150.9548   -91.0934   211.4375 C5            1 RES     
   10400 C5        -149.4774   -91.9322   210.9003 C5            1 RES     
   10401 C5        -149.5452   -91.4730   209.3324 C5            1 RES     
   10402 C5        -150.8440   -91.7539   208.4474 C5            1 RES     
   10403 C5        -151.0220   -90.8344   207.1625 C5            1 RES     
   10404 C5        -152.2002   -91.2266   206.1908 C5            1 RES     
   10405 C5        -152.1953   -92.7112   205.7652 C5            1 RES     
   10406 C5        -150.8571   -93.1914   205.1530 C5            1 RES     
   10407 C5        -150.8891   -93.5662   203.6668 C5            1 RES     
   10408 C5        -151.2910   -92.4316   202.7308 C5            1 RES     
   10409 C5        -148.1973   -93.2989   211.5280 C5            1 RES     
   10410 C0        -147.8338   -94.9050   212.5865 C0            1 RES     
   10411 C5        -149.1801   -95.6581   212.4334 C5            1 RES     
   10412 C5        -150.5131   -94.7680   212.5140 C5            1 RES     
   10413 C5        -150.9935   -94.5205   213.9543 C5            1 RES     
   10414 C5        -149.9580   -93.9862   214.9705 C5            1 RES     
   10415 C5        -149.2018   -92.7054   214.5553 C5            1 RES     
   10416 C5        -148.4533   -92.0129   215.6867 C5            1 RES     
   10417 C5        -147.4919   -92.9556   216.4114 C5            1 RES     
   10418 C5        -146.9559   -92.3010   217.6805 C5            1 RES     
   10419 C5        -146.2716   -93.3565   218.5385 C5            1 RES     
   10420 C5        -145.8906   -92.8403   219.9071 C5            1 RES     
   10421 C5        -151.6368   -95.3436   211.5862 C5            1 RES     
   10422 C5        -152.8659   -94.4766   211.1123 C5            1 RES     
   10423 C5        -154.0563   -94.1187   212.0432 C5            1 RES     
   10424 C5        -154.6698   -95.3584   212.7068 C5            1 RES     
   10425 C5        -156.0348   -95.0920   213.3806 C5            1 RES     
   10426 C5        -156.4349   -96.2361   214.3381 C5            1 RES     
   10427 C5        -156.5140   -97.6456   213.7150 C5            1 RES     
   10428 C5        -157.6415   -97.8521   212.6865 C5            1 RES     
   10429 C5        -159.0679   -97.6640   213.2401 C5            1 RES     
   10430 C5        -159.4077   -98.6220   214.3853 C5            1 RES     
   10431 H6        -158.9000   -81.1292   210.8813 H6            1 RES     
   10432 H6        -160.0661   -82.0429   209.8537 H6            1 RES     
   10433 H6        -160.2745   -81.9825   211.6338 H6            1 RES     
   10434 H6        -158.1779   -83.2419   211.9973 H6            1 RES     
   10435 H6        -159.3191   -84.2153   210.9884 H6            1 RES     
   10436 H6        -158.0007   -83.5884   208.9119 H6            1 RES     
   10437 H6        -157.0139   -82.5002   209.9183 H6            1 RES     
   10438 H6        -155.9997   -84.3938   211.1827 H6            1 RES     
   10439 H6        -155.5747   -84.3363   209.4345 H6            1 RES     
   10440 H6        -157.0092   -86.3053   208.9442 H6            1 RES     
   10441 H6        -157.5752   -86.2826   210.6182 H6            1 RES     
   10442 H6        -156.2398   -88.2208   210.4218 H6            1 RES     
   10443 H6        -155.3756   -87.1163   211.5300 H6            1 RES     
   10444 H6        -154.6101   -87.9173   208.6747 H6            1 RES     
   10445 H6        -153.5389   -86.9081   209.6357 H6            1 RES     
   10446 H6        -152.7987   -89.3170   208.9276 H6            1 RES     
   10447 H6        -154.0226   -90.0335   209.9740 H6            1 RES     
   10448 H6        -151.2459   -88.8250   210.8630 H6            1 RES     
   10449 H6        -152.4988   -89.4724   211.9404 H6            1 RES     
   10450 H6        -151.7186   -91.8613   211.5935 H6            1 RES     
   10451 H6        -150.6543   -90.7686   212.4424 H6            1 RES     
   10452 H6        -148.7668   -91.1204   211.1743 H6            1 RES     
   10453 H6        -148.6229   -91.7134   208.7665 H6            1 RES     
   10454 H6        -149.5571   -90.3512   209.3591 H6            1 RES     
   10455 H6        -151.7777   -91.5978   209.0232 H6            1 RES     
   10456 H6        -150.7954   -92.8127   208.1492 H6            1 RES     
   10457 H6        -150.0849   -90.8074   206.5816 H6            1 RES     
   10458 H6        -151.1919   -89.7700   207.4477 H6            1 RES     
   10459 H6        -152.1695   -90.5862   205.2762 H6            1 RES     
   10460 H6        -153.1837   -91.0248   206.6751 H6            1 RES     
   10461 H6        -152.3869   -93.2874   206.6915 H6            1 RES     
   10462 H6        -153.0544   -92.9633   205.1015 H6            1 RES     
   10463 H6        -150.0373   -92.4739   205.3227 H6            1 RES     
   10464 H6        -150.5644   -94.1160   205.6932 H6            1 RES     
   10465 H6        -151.5814   -94.4211   203.5178 H6            1 RES     
   10466 H6        -149.8631   -93.8986   203.3927 H6            1 RES     
   10467 H6        -150.6172   -91.5584   202.8519 H6            1 RES     
   10468 H6        -151.2161   -92.7962   201.6827 H6            1 RES     
   10469 H6        -152.3406   -92.1249   202.9164 H6            1 RES     
   10470 H6        -147.4170   -92.6310   211.9593 H6            1 RES     
   10471 H6        -147.7020   -93.5472   210.5655 H6            1 RES     
   10472 H6        -149.0890   -96.0948   211.4203 H6            1 RES     
   10473 H6        -149.2317   -96.4840   213.1697 H6            1 RES     
   10474 H6        -150.3727   -93.7919   212.0889 H6            1 RES     
   10475 H6        -151.8264   -93.7965   213.9123 H6            1 RES     
   10476 H6        -151.3849   -95.4719   214.3614 H6            1 RES     
   10477 H6        -150.5229   -93.7790   215.9031 H6            1 RES     
   10478 H6        -149.2258   -94.7949   215.1766 H6            1 RES     
   10479 H6        -148.4304   -92.9590   213.8552 H6            1 RES     
   10480 H6        -149.8930   -91.9761   214.1034 H6            1 RES     
   10481 H6        -147.8833   -91.1460   215.2787 H6            1 RES     
   10482 H6        -149.2163   -91.6350   216.3954 H6            1 RES     
   10483 H6        -148.0632   -93.8452   216.7369 H6            1 RES     
   10484 H6        -146.6655   -93.2906   215.7434 H6            1 RES     
   10485 H6        -146.2619   -91.4672   217.4344 H6            1 RES     
   10486 H6        -147.8182   -91.9042   218.2559 H6            1 RES     
   10487 H6        -145.3553   -93.6717   218.0215 H6            1 RES     
   10488 H6        -146.9645   -94.2187   218.6872 H6            1 RES     
   10489 H6        -145.1456   -92.0266   219.8064 H6            1 RES     
   10490 H6        -145.4515   -93.6776   220.4907 H6            1 RES     
   10491 H6        -146.7960   -92.4728   220.4337 H6            1 RES     
   10492 H6        -151.9765   -96.3242   211.9646 H6            1 RES     
   10493 H6        -151.1156   -95.5200   210.6180 H6            1 RES     
   10494 H6        -152.5166   -93.5520   210.6149 H6            1 RES     
   10495 H6        -153.3318   -95.0654   210.2923 H6            1 RES     
   10496 H6        -153.7823   -93.3687   212.8142 H6            1 RES     
   10497 H6        -154.8338   -93.6416   211.3985 H6            1 RES     
   10498 H6        -153.9366   -95.7069   213.4623 H6            1 RES     
   10499 H6        -154.8236   -96.1498   211.9429 H6            1 RES     
   10500 H6        -156.8202   -94.9257   212.6074 H6            1 RES     
   10501 H6        -155.9755   -94.1695   213.9984 H6            1 RES     
   10502 H6        -157.3951   -95.9898   214.8386 H6            1 RES     
   10503 H6        -155.6602   -96.2734   215.1340 H6            1 RES     
   10504 H6        -156.6411   -98.3822   214.5344 H6            1 RES     
   10505 H6        -155.5432   -97.8909   213.2373 H6            1 RES     
   10506 H6        -157.4927   -97.1598   211.8313 H6            1 RES     
   10507 H6        -157.5582   -98.8901   212.2944 H6            1 RES     
   10508 H6        -159.2166   -96.6182   213.5785 H6            1 RES     
   10509 H6        -159.7838   -97.8548   212.4111 H6            1 RES     
   10510 H6        -159.2847   -99.6771   214.0600 H6            1 RES     
   10511 H6        -158.7665   -98.4326   215.2705 H6            1 RES     
   10512 H6        -160.4624   -98.4680   214.6963 H6            1 RES     
   10513 C0        -138.1290  -104.8352   220.1325 C0            1 RES     
   10514 C0        -139.2613  -103.7433   221.1057 C0            1 RES     
   10515 C0        -140.4781  -104.3932   221.2689 C0            1 RES     
   10516 S1        -141.7710  -103.4334   221.8681 S1            1 RES     
   10517 C0        -141.0723  -101.9392   222.0539 C0            1 RES     
   10518 C0        -139.6186  -102.2682   221.6087 C0            1 RES     
   10519 C0        -140.6122  -105.5503   220.3830 C0            1 RES     
   10520 C0        -139.4922  -105.1372   219.4420 C0            1 RES     
   10521 C0        -139.9778  -104.4493   218.3729 C0            1 RES     
   10522 C0        -141.3658  -104.4126   218.2646 C0            1 RES     
   10523 S1        -142.2133  -105.3560   219.5025 S1            1 RES     
   10524 H2        -138.9365  -101.4297   221.5351 H2            1 RES     
   10525 H2        -139.3745  -103.7985   217.7613 H2            1 RES     
   10526 N3        -144.5925  -100.1983   222.7828 N3            1 RES     
   10527 C0        -143.5906  -101.0164   222.4260 C0            1 RES     
   10528 C0        -142.1503  -100.7268   222.5434 C0            1 RES     
   10529 C0        -142.0024   -99.3706   223.1120 C0            1 RES     
   10530 N3        -140.8088   -98.7450   223.3624 N3            1 RES     
   10531 S1        -141.2596   -97.2822   224.0200 S1            1 RES     
   10532 N3        -142.9110   -97.3321   224.0046 N3            1 RES     
   10533 C0        -143.1523   -98.5404   223.4783 C0            1 RES     
   10534 C0        -144.4520   -98.9509   223.3100 C0            1 RES     
   10535 H4        -143.9308  -101.9419   222.0173 H4            1 RES     
   10536 C5        -129.1186  -121.7936   217.4047 C5            1 RES     
   10537 C5        -129.7817  -120.4574   217.8447 C5            1 RES     
   10538 C5        -129.2063  -119.1973   217.1187 C5            1 RES     
   10539 C5        -130.0037  -117.8094   217.2459 C5            1 RES     
   10540 C5        -129.9796  -116.9620   218.5903 C5            1 RES     
   10541 C5        -130.9764  -115.6544   218.8621 C5            1 RES     
   10542 C5        -130.8416  -114.1260   218.2462 C5            1 RES     
   10543 C5        -131.6178  -112.6402   218.7657 C5            1 RES     
   10544 C5        -133.1014  -111.8836   218.3963 C5            1 RES     
   10545 C5        -134.0830  -110.4589   218.8969 C5            1 RES     
   10546 C5        -134.2377  -108.7227   218.5273 C5            1 RES     
   10547 C5        -132.6983  -108.4859   218.0294 C5            1 RES     
   10548 C5        -131.4622  -108.8727   218.9628 C5            1 RES     
   10549 C5        -130.0759  -109.1054   218.2196 C5            1 RES     
   10550 C5        -128.8192  -109.3077   219.1502 C5            1 RES     
   10551 C5        -128.6501  -108.2109   220.2243 C5            1 RES     
   10552 C5        -128.6326  -106.7690   219.6614 C5            1 RES     
   10553 C5        -127.3059  -106.0107   219.7850 C5            1 RES     
   10554 C5        -126.1299  -106.6600   219.0638 C5            1 RES     
   10555 C5        -135.4762  -107.2138   218.8276 C5            1 RES     
   10556 C0        -136.8219  -106.3377   219.9470 C0            1 RES     
   10557 C5        -136.3147  -106.7262   221.3594 C5            1 RES     
   10558 C5        -135.7824  -108.2291   221.5421 C5            1 RES     
   10559 C5        -136.9036  -109.2404   221.8364 C5            1 RES     
   10560 C5        -138.1294  -109.2417   220.8941 C5            1 RES     
   10561 C5        -137.8237  -109.3821   219.3869 C5            1 RES     
   10562 C5        -139.0301  -109.7217   218.5215 C5            1 RES     
   10563 C5        -140.1813  -108.7339   218.7142 C5            1 RES     
   10564 C5        -141.4450  -109.2450   218.0300 C5            1 RES     
   10565 C5        -142.6376  -108.4242   218.5015 C5            1 RES     
   10566 C5        -143.9586  -108.9903   218.0334 C5            1 RES     
   10567 C5        -134.6130  -108.2944   222.5828 C5            1 RES     
   10568 C5        -133.6093  -109.5089   222.6489 C5            1 RES     
   10569 C5        -133.9917  -110.8890   223.2496 C5            1 RES     
   10570 C5        -134.5712  -110.7678   224.6649 C5            1 RES     
   10571 C5        -134.6680  -112.1155   225.4149 C5            1 RES     
   10572 C5        -135.5803  -112.0162   226.6574 C5            1 RES     
   10573 C5        -135.1880  -110.9521   227.7037 C5            1 RES     
   10574 C5        -133.8691  -111.2163   228.4538 C5            1 RES     
   10575 C5        -133.8448  -112.5125   229.2879 C5            1 RES     
   10576 C5        -134.9239  -112.5582   230.3733 C5            1 RES     
   10577 H6        -129.2569  -121.9813   216.3154 H6            1 RES     
   10578 H6        -128.0309  -121.8254   217.6281 H6            1 RES     
   10579 H6        -129.5903  -122.6568   217.9329 H6            1 RES     
   10580 H6        -130.8590  -120.5610   217.5986 H6            1 RES     
   10581 H6        -129.6681  -120.3572   218.9431 H6            1 RES     
   10582 H6        -128.1269  -119.0930   217.3716 H6            1 RES     
   10583 H6        -129.2436  -119.4738   216.0378 H6            1 RES     
   10584 H6        -131.0537  -118.0466   216.9863 H6            1 RES     
   10585 H6        -129.5831  -117.1532   216.4577 H6            1 RES     
   10586 H6        -128.9152  -116.7106   218.8099 H6            1 RES     
   10587 H6        -130.2552  -117.7239   219.3583 H6            1 RES     
   10588 H6        -130.8382  -115.5148   219.9572 H6            1 RES     
   10589 H6        -132.0028  -116.0270   218.7017 H6            1 RES     
   10590 H6        -129.7600  -113.9538   218.4735 H6            1 RES     
   10591 H6        -130.8766  -114.2106   217.1405 H6            1 RES     
   10592 H6        -130.8464  -111.9239   218.4142 H6            1 RES     
   10593 H6        -131.4839  -112.6904   219.8676 H6            1 RES     
   10594 H6        -133.1104  -111.8809   217.2869 H6            1 RES     
   10595 H6        -133.7560  -112.7222   218.7099 H6            1 RES     
   10596 H6        -134.0702  -110.5528   219.9871 H6            1 RES     
   10597 H6        -135.0685  -110.8261   218.5813 H6            1 RES     
   10598 H6        -134.6217  -108.8500   217.4903 H6            1 RES     
   10599 H6        -132.5398  -107.4967   217.5550 H6            1 RES     
   10600 H6        -132.5511  -109.2125   217.1870 H6            1 RES     
   10601 H6        -131.6382  -109.8200   219.5099 H6            1 RES     
   10602 H6        -131.3625  -108.0616   219.7007 H6            1 RES     
   10603 H6        -129.8689  -108.2696   217.5307 H6            1 RES     
   10604 H6        -130.1195  -109.9984   217.5533 H6            1 RES     
   10605 H6        -127.8905  -109.3570   218.5316 H6            1 RES     
   10606 H6        -128.8863  -110.2846   219.6831 H6            1 RES     
   10607 H6        -129.5228  -108.3165   220.8981 H6            1 RES     
   10608 H6        -127.7700  -108.3962   220.8825 H6            1 RES     
   10609 H6        -128.9733  -106.7240   218.6138 H6            1 RES     
   10610 H6        -129.3732  -106.1824   220.2442 H6            1 RES     
   10611 H6        -127.0502  -105.8894   220.8585 H6            1 RES     
   10612 H6        -127.4673  -104.9992   219.3502 H6            1 RES     
   10613 H6        -126.3506  -106.7954   217.9848 H6            1 RES     
   10614 H6        -125.2440  -105.9954   219.1651 H6            1 RES     
   10615 H6        -125.8823  -107.6391   219.5224 H6            1 RES     
   10616 H6        -136.0515  -107.2601   217.8748 H6            1 RES     
   10617 H6        -134.8012  -106.3665   218.5829 H6            1 RES     
   10618 H6        -135.4777  -106.0177   221.5095 H6            1 RES     
   10619 H6        -137.0993  -106.5089   222.1106 H6            1 RES     
   10620 H6        -135.2942  -108.5944   220.6581 H6            1 RES     
   10621 H6        -136.4607  -110.2518   221.8115 H6            1 RES     
   10622 H6        -137.2823  -109.0557   222.8594 H6            1 RES     
   10623 H6        -138.7582  -110.0997   221.2108 H6            1 RES     
   10624 H6        -138.7007  -108.3057   221.0676 H6            1 RES     
   10625 H6        -137.4897  -108.4387   219.0025 H6            1 RES     
   10626 H6        -137.0520  -110.1501   219.2176 H6            1 RES     
   10627 H6        -138.7267  -109.7306   217.4488 H6            1 RES     
   10628 H6        -139.3564  -110.7411   218.8072 H6            1 RES     
   10629 H6        -140.4116  -108.6814   219.7950 H6            1 RES     
   10630 H6        -139.9087  -107.7132   218.3605 H6            1 RES     
   10631 H6        -141.3400  -109.2075   216.9231 H6            1 RES     
   10632 H6        -141.6101  -110.2955   218.3484 H6            1 RES     
   10633 H6        -142.5333  -107.4098   218.0938 H6            1 RES     
   10634 H6        -142.6574  -108.4075   219.6173 H6            1 RES     
   10635 H6        -144.0089  -108.9582   216.9272 H6            1 RES     
   10636 H6        -144.7784  -108.3745   218.4618 H6            1 RES     
   10637 H6        -144.0679  -110.0338   218.3956 H6            1 RES     
   10638 H6        -134.9880  -108.0454   223.5915 H6            1 RES     
   10639 H6        -133.9312  -107.4727   222.2662 H6            1 RES     
   10640 H6        -133.1364  -109.6724   221.6622 H6            1 RES     
   10641 H6        -132.7752  -109.1556   223.2935 H6            1 RES     
   10642 H6        -134.6884  -111.4575   222.5988 H6            1 RES     
   10643 H6        -133.0492  -111.4862   223.3035 H6            1 RES     
   10644 H6        -135.5810  -110.3227   224.5550 H6            1 RES     
   10645 H6        -133.9300  -110.0936   225.2714 H6            1 RES     
   10646 H6        -133.6506  -112.4747   225.6946 H6            1 RES     
   10647 H6        -135.1213  -112.8836   224.7511 H6            1 RES     
   10648 H6        -135.6640  -113.0112   227.1436 H6            1 RES     
   10649 H6        -136.5956  -111.7541   226.2893 H6            1 RES     
   10650 H6        -136.0088  -110.8732   228.4453 H6            1 RES     
   10651 H6        -135.1288  -109.9589   227.2129 H6            1 RES     
   10652 H6        -133.0294  -111.2393   227.7277 H6            1 RES     
   10653 H6        -133.6920  -110.3602   229.1423 H6            1 RES     
   10654 H6        -133.9479  -113.3985   228.6286 H6            1 RES     
   10655 H6        -132.8540  -112.5782   229.7880 H6            1 RES     
   10656 H6        -134.8251  -111.6886   231.0576 H6            1 RES     
   10657 H6        -135.9402  -112.5632   229.9288 H6            1 RES     
   10658 H6        -134.8130  -113.4902   230.9666 H6            1 RES     
   10659 C0        -148.7178   -96.1895   222.2361 C0            1 RES     
   10660 C0        -149.0501   -98.0091   222.2466 C0            1 RES     
   10661 C0        -148.8653   -98.4899   223.5367 C0            1 RES     
   10662 S1        -148.8153  -100.1991   223.7043 S1            1 RES     
   10663 C0        -149.0117  -100.7334   222.1451 C0            1 RES     
   10664 C0        -149.1668   -99.3692   221.4140 C0            1 RES     
   10665 C0        -148.1732   -97.5267   224.3939 C0            1 RES     
   10666 C0        -147.6412   -96.6780   223.2505 C0            1 RES     
   10667 C0        -146.3794   -97.0537   222.9060 C0            1 RES     
   10668 C0        -145.7807   -97.9861   223.7499 C0            1 RES     
   10669 S1        -146.7627   -98.4219   225.1592 S1            1 RES     
   10670 H2        -149.2160   -99.4057   220.3324 H2            1 RES     
   10671 H2        -145.9322   -96.8289   221.9516 H2            1 RES     
   10672 N3        -148.1731  -104.5059   223.1543 N3            1 RES     
   10673 C0        -148.3222  -103.1738   223.0943 C0            1 RES     
   10674 C0        -148.8990  -102.4152   221.9700 C0            1 RES     
   10675 C0        -149.2736  -103.3787   220.9138 C0            1 RES     
   10676 N3        -149.8353  -103.0496   219.7075 N3            1 RES     
   10677 S1        -150.0633  -104.5223   218.9628 S1            1 RES     
   10678 N3        -149.4696  -105.6140   220.0518 N3            1 RES     
   10679 C0        -149.0789  -104.8231   221.0602 C0            1 RES     
   10680 C0        -148.5230  -105.3906   222.1805 C0            1 RES     
   10681 H4        -147.9625  -102.6722   223.9650 H4            1 RES     
   10682 C5        -151.9375   -78.3198   229.0567 C5            1 RES     
   10683 C5        -151.9081   -79.7780   228.5170 C5            1 RES     
   10684 C5        -151.2544   -79.9153   227.1028 C5            1 RES     
   10685 C5        -150.8810   -81.3838   226.5711 C5            1 RES     
   10686 C5        -152.0034   -82.3942   226.0757 C5            1 RES     
   10687 C5        -151.7045   -84.0009   225.7500 C5            1 RES     
   10688 C5        -150.9556   -84.6492   224.4261 C5            1 RES     
   10689 C5        -150.9371   -86.3083   223.8543 C5            1 RES     
   10690 C5        -149.9560   -87.6654   224.1796 C5            1 RES     
   10691 C5        -149.8561   -89.4194   223.7830 C5            1 RES     
   10692 C5        -149.2006   -90.4868   222.5158 C5            1 RES     
   10693 C5        -149.2529   -89.4022   221.2933 C5            1 RES     
   10694 C5        -150.6113   -88.6542   220.9136 C5            1 RES     
   10695 C5        -150.4530   -87.2878   220.1158 C5            1 RES     
   10696 C5        -151.7885   -86.6413   219.5824 C5            1 RES     
   10697 C5        -152.6757   -87.6113   218.7717 C5            1 RES     
   10698 C5        -151.9471   -88.3045   217.5950 C5            1 RES     
   10699 C5        -152.4193   -87.9219   216.1875 C5            1 RES     
   10700 C5        -152.2688   -86.4442   215.8433 C5            1 RES     
   10701 C5        -148.8120   -92.3965   222.1944 C5            1 RES     
   10702 C0        -149.2356   -94.2790   222.5230 C0            1 RES     
   10703 C5        -150.7772   -94.2034   222.6679 C5            1 RES     
   10704 C5        -151.3596   -92.9568   223.4940 C5            1 RES     
   10705 C5        -151.3837   -93.1918   225.0141 C5            1 RES     
   10706 C5        -150.0789   -93.6844   225.6814 C5            1 RES     
   10707 C5        -148.8179   -92.8357   225.4088 C5            1 RES     
   10708 C5        -147.6413   -93.1294   226.3303 C5            1 RES     
   10709 C5        -147.2624   -94.6108   226.3366 C5            1 RES     
   10710 C5        -146.2583   -94.9015   227.4473 C5            1 RES     
   10711 C5        -146.1468   -96.4076   227.6409 C5            1 RES     
   10712 C5        -145.3301   -96.7818   228.8565 C5            1 RES     
   10713 C5        -152.7451   -92.4967   222.9255 C5            1 RES     
   10714 C5        -153.3444   -91.0676   223.2175 C5            1 RES     
   10715 C5        -153.9690   -90.6767   224.5846 C5            1 RES     
   10716 C5        -155.0508   -91.6668   225.0350 C5            1 RES     
   10717 C5        -155.9099   -91.1557   226.2136 C5            1 RES     
   10718 C5        -156.7172   -92.2963   226.8718 C5            1 RES     
   10719 C5        -157.6630   -93.0829   225.9402 C5            1 RES     
   10720 C5        -158.8633   -92.2887   225.3921 C5            1 RES     
   10721 C5        -159.8353   -91.7582   226.4646 C5            1 RES     
   10722 C5        -160.4601   -92.8638   227.3203 C5            1 RES     
   10723 H6        -150.9113   -77.8974   229.1543 H6            1 RES     
   10724 H6        -152.5349   -77.6378   228.4148 H6            1 RES     
   10725 H6        -152.3862   -78.2899   230.0787 H6            1 RES     
   10726 H6        -151.3137   -80.3590   229.2526 H6            1 RES     
   10727 H6        -152.9470   -80.1652   228.5027 H6            1 RES     
   10728 H6        -151.8558   -79.3359   226.3663 H6            1 RES     
   10729 H6        -150.2852   -79.3709   227.2047 H6            1 RES     
   10730 H6        -150.3038   -81.8566   227.3892 H6            1 RES     
   10731 H6        -150.2052   -81.2226   225.7074 H6            1 RES     
   10732 H6        -152.5467   -81.9056   225.2327 H6            1 RES     
   10733 H6        -152.7279   -82.3820   226.9249 H6            1 RES     
   10734 H6        -152.7432   -84.3950   225.6896 H6            1 RES     
   10735 H6        -151.2474   -84.4085   226.6681 H6            1 RES     
   10736 H6        -151.5241   -84.1018   223.6333 H6            1 RES     
   10737 H6        -149.9357   -84.2155   224.3774 H6            1 RES     
   10738 H6        -150.7799   -86.1051   222.7746 H6            1 RES     
   10739 H6        -152.0089   -86.5880   223.9420 H6            1 RES     
   10740 H6        -148.9287   -87.2676   224.0474 H6            1 RES     
   10741 H6        -150.1379   -87.6977   225.2731 H6            1 RES     
   10742 H6        -150.8805   -89.7499   223.9797 H6            1 RES     
   10743 H6        -149.2695   -89.7456   224.6519 H6            1 RES     
   10744 H6        -148.1263   -90.2898   222.7306 H6            1 RES     
   10745 H6        -148.7236   -89.7454   220.3818 H6            1 RES     
   10746 H6        -148.6365   -88.5346   221.6490 H6            1 RES     
   10747 H6        -151.1950   -88.3760   221.8133 H6            1 RES     
   10748 H6        -151.2062   -89.3683   220.3234 H6            1 RES     
   10749 H6        -149.7659   -87.4225   219.2638 H6            1 RES     
   10750 H6        -149.9561   -86.5100   220.7413 H6            1 RES     
   10751 H6        -151.5551   -85.7492   218.9520 H6            1 RES     
   10752 H6        -152.4023   -86.2648   220.4334 H6            1 RES     
   10753 H6        -153.0030   -88.3875   219.4909 H6            1 RES     
   10754 H6        -153.6235   -87.1334   218.4321 H6            1 RES     
   10755 H6        -150.8526   -88.1828   217.6498 H6            1 RES     
   10756 H6        -152.1339   -89.3944   217.6923 H6            1 RES     
   10757 H6        -153.4825   -88.2162   216.0635 H6            1 RES     
   10758 H6        -151.8096   -88.5123   215.4678 H6            1 RES     
   10759 H6        -151.2151   -86.1150   215.9550 H6            1 RES     
   10760 H6        -152.5778   -86.2955   214.7853 H6            1 RES     
   10761 H6        -152.9263   -85.8240   216.4863 H6            1 RES     
   10762 H6        -147.7353   -92.4121   222.4798 H6            1 RES     
   10763 H6        -148.6994   -92.3809   221.0896 H6            1 RES     
   10764 H6        -151.1073   -94.1337   221.6137 H6            1 RES     
   10765 H6        -151.1590   -95.1515   223.0948 H6            1 RES     
   10766 H6        -150.7720   -92.0691   223.3525 H6            1 RES     
   10767 H6        -151.6694   -92.2411   225.4980 H6            1 RES     
   10768 H6        -152.1654   -93.9414   225.2403 H6            1 RES     
   10769 H6        -150.2759   -93.6880   226.7736 H6            1 RES     
   10770 H6        -149.8960   -94.7297   225.3548 H6            1 RES     
   10771 H6        -148.4408   -93.0629   224.4312 H6            1 RES     
   10772 H6        -149.0507   -91.7612   225.4803 H6            1 RES     
   10773 H6        -146.7607   -92.5242   226.0124 H6            1 RES     
   10774 H6        -147.9414   -92.8129   227.3487 H6            1 RES     
   10775 H6        -148.1699   -95.1965   226.5757 H6            1 RES     
   10776 H6        -146.8803   -94.9400   225.3431 H6            1 RES     
   10777 H6        -145.2687   -94.4487   227.2163 H6            1 RES     
   10778 H6        -146.6504   -94.4671   228.3905 H6            1 RES     
   10779 H6        -145.6561   -96.8282   226.7530 H6            1 RES     
   10780 H6        -147.1669   -96.8396   227.7774 H6            1 RES     
   10781 H6        -144.2867   -96.4320   228.7288 H6            1 RES     
   10782 H6        -145.3420   -97.8878   228.9632 H6            1 RES     
   10783 H6        -145.7814   -96.3296   229.7642 H6            1 RES     
   10784 H6        -153.5054   -93.2791   223.0986 H6            1 RES     
   10785 H6        -152.5725   -92.4340   221.8271 H6            1 RES     
   10786 H6        -152.6264   -90.2802   222.9196 H6            1 RES     
   10787 H6        -154.1827   -90.9562   222.4959 H6            1 RES     
   10788 H6        -153.2059   -90.5558   225.3815 H6            1 RES     
   10789 H6        -154.4430   -89.6749   224.4445 H6            1 RES     
   10790 H6        -154.5240   -92.5980   225.3268 H6            1 RES     
   10791 H6        -155.7376   -91.8761   224.1876 H6            1 RES     
   10792 H6        -156.5831   -90.3356   225.8724 H6            1 RES     
   10793 H6        -155.2510   -90.7376   227.0056 H6            1 RES     
   10794 H6        -157.2847   -91.9027   227.7414 H6            1 RES     
   10795 H6        -155.9775   -93.0213   227.2747 H6            1 RES     
   10796 H6        -158.0437   -93.9650   226.4943 H6            1 RES     
   10797 H6        -157.0828   -93.4905   225.0870 H6            1 RES     
   10798 H6        -158.4952   -91.4349   224.7854 H6            1 RES     
   10799 H6        -159.4335   -92.9603   224.7124 H6            1 RES     
   10800 H6        -159.3227   -91.0279   227.1237 H6            1 RES     
   10801 H6        -160.6587   -91.2224   225.9441 H6            1 RES     
   10802 H6        -160.9966   -93.5958   226.6796 H6            1 RES     
   10803 H6        -159.6896   -93.3928   227.9176 H6            1 RES     
   10804 H6        -161.1863   -92.4161   228.0310 H6            1 RES     
   10805 C0        -145.6034  -109.6583   222.6684 C0            1 RES     
   10806 C0        -145.7669  -108.7398   224.2656 C0            1 RES     
   10807 C0        -147.0948  -108.7814   224.6714 C0            1 RES     
   10808 S1        -147.5226  -107.7287   225.9600 S1            1 RES     
   10809 C0        -146.0940  -106.9553   226.3009 C0            1 RES     
   10810 C0        -145.1605  -107.6559   225.2726 C0            1 RES     
   10811 C0        -147.9877  -109.2303   223.6024 C0            1 RES     
   10812 C0        -146.9949  -108.9847   222.4778 C0            1 RES     
   10813 C0        -147.1817  -107.7590   221.9169 C0            1 RES     
   10814 C0        -148.3124  -107.0692   222.3476 C0            1 RES     
   10815 S1        -149.3290  -107.9803   223.4776 S1            1 RES     
   10816 H2        -144.1504  -107.2710   225.1994 H2            1 RES     
   10817 H2        -146.4264  -107.2464   221.3440 H2            1 RES     
   10818 N3        -147.8871  -104.3678   228.7591 N3            1 RES     
   10819 C0        -147.5796  -105.2893   227.8336 C0            1 RES     
   10820 C0        -146.2239  -105.7518   227.4868 C0            1 RES     
   10821 C0        -145.2602  -105.0130   228.3292 C0            1 RES     
   10822 N3        -143.8984  -105.1638   228.2895 N3            1 RES     
   10823 S1        -143.3503  -104.1170   229.4638 S1            1 RES     
   10824 N3        -144.7292  -103.4197   230.0489 N3            1 RES     
   10825 C0        -145.6804  -104.0209   229.3217 C0            1 RES     
   10826 C0        -146.9964  -103.6920   229.5360 C0            1 RES     
   10827 H4        -148.4359  -105.6787   227.3293 H4            1 RES     
   10828 C5        -148.0818  -125.6421   211.9637 C5            1 RES     
   10829 C5        -147.8121  -124.5035   212.9880 C5            1 RES     
   10830 C5        -146.7602  -123.4528   212.5027 C5            1 RES     
   10831 C5        -146.6218  -122.0755   213.3164 C5            1 RES     
   10832 C5        -145.9167  -122.0232   214.7400 C5            1 RES     
   10833 C5        -145.9625  -120.6848   215.7316 C5            1 RES     
   10834 C5        -145.1040  -119.2793   215.5853 C5            1 RES     
   10835 C5        -144.8310  -118.0094   216.7655 C5            1 RES     
   10836 C5        -145.6826  -116.6004   217.2120 C5            1 RES     
   10837 C5        -145.6143  -115.2790   218.4339 C5            1 RES     
   10838 C5        -144.8376  -113.6933   218.6729 C5            1 RES     
   10839 C5        -143.5289  -113.9673   217.7316 C5            1 RES     
   10840 C5        -142.5840  -115.2296   217.9822 C5            1 RES     
   10841 C5        -141.7000  -115.6929   216.7444 C5            1 RES     
   10842 C5        -140.6365  -116.8192   217.0388 C5            1 RES     
   10843 C5        -139.7182  -116.5165   218.2430 C5            1 RES     
   10844 C5        -138.9950  -115.1503   218.1618 C5            1 RES     
   10845 C5        -137.4713  -115.2001   217.9996 C5            1 RES     
   10846 C5        -136.9863  -115.9050   216.7375 C5            1 RES     
   10847 C5        -144.9645  -112.1038   219.8383 C5            1 RES     
   10848 C0        -145.3985  -111.3241   221.5805 C0            1 RES     
   10849 C5        -144.9731  -112.4787   222.5235 C5            1 RES     
   10850 C5        -145.3421  -113.9663   222.0477 C5            1 RES     
   10851 C5        -146.7712  -114.3901   222.4279 C5            1 RES     
   10852 C5        -147.9242  -113.4309   222.0524 C5            1 RES     
   10853 C5        -147.9940  -113.0055   220.5694 C5            1 RES     
   10854 C5        -149.3063  -112.3526   220.1555 C5            1 RES     
   10855 C5        -149.6682  -111.1601   221.0415 C5            1 RES     
   10856 C5        -151.0933  -110.6962   220.7583 C5            1 RES     
   10857 C5        -151.5367  -109.7393   221.8566 C5            1 RES     
   10858 C5        -153.0045  -109.3890   221.7692 C5            1 RES     
   10859 C5        -144.2563  -114.9962   222.5116 C5            1 RES     
   10860 C5        -144.0992  -116.4154   221.8423 C5            1 RES     
   10861 C5        -145.0802  -117.5891   222.1105 C5            1 RES     
   10862 C5        -145.2593  -117.8677   223.6085 C5            1 RES     
   10863 C5        -145.9650  -119.2087   223.9117 C5            1 RES     
   10864 C5        -146.4559  -119.2806   225.3745 C5            1 RES     
   10865 C5        -145.3778  -119.0896   226.4618 C5            1 RES     
   10866 C5        -144.3268  -120.2114   226.5559 C5            1 RES     
   10867 C5        -144.8916  -121.6030   226.9033 C5            1 RES     
   10868 C5        -145.6243  -121.6445   228.2473 C5            1 RES     
   10869 H6        -148.4734  -125.2432   211.0001 H6            1 RES     
   10870 H6        -147.1753  -126.2466   211.7473 H6            1 RES     
   10871 H6        -148.8608  -126.3413   212.3521 H6            1 RES     
   10872 H6        -148.7890  -123.9990   213.1409 H6            1 RES     
   10873 H6        -147.4877  -124.9637   213.9432 H6            1 RES     
   10874 H6        -145.7802  -123.9606   212.3552 H6            1 RES     
   10875 H6        -147.1172  -123.1715   211.4831 H6            1 RES     
   10876 H6        -147.6524  -121.6813   213.4082 H6            1 RES     
   10877 H6        -146.0409  -121.3996   212.6573 H6            1 RES     
   10878 H6        -144.8728  -122.3951   214.6116 H6            1 RES     
   10879 H6        -146.4409  -122.8367   215.2965 H6            1 RES     
   10880 H6        -145.5966  -121.1237   216.6863 H6            1 RES     
   10881 H6        -147.0330  -120.4505   215.8626 H6            1 RES     
   10882 H6        -144.0887  -119.7239   215.4343 H6            1 RES     
   10883 H6        -145.3568  -118.8384   214.5992 H6            1 RES     
   10884 H6        -143.8603  -117.6357   216.3786 H6            1 RES     
   10885 H6        -144.5728  -118.5974   217.6722 H6            1 RES     
   10886 H6        -145.8664  -116.1012   216.2383 H6            1 RES     
   10887 H6        -146.6318  -117.1042   217.4864 H6            1 RES     
   10888 H6        -145.4811  -115.8424   219.3625 H6            1 RES     
   10889 H6        -146.6733  -114.9897   218.4144 H6            1 RES     
   10890 H6        -145.3881  -113.1620   217.8644 H6            1 RES     
   10891 H6        -142.9273  -113.0555   217.5436 H6            1 RES     
   10892 H6        -143.9465  -114.2242   216.7222 H6            1 RES     
   10893 H6        -143.1652  -116.1332   218.2529 H6            1 RES     
   10894 H6        -141.9347  -114.9694   218.8325 H6            1 RES     
   10895 H6        -141.1781  -114.8267   216.3045 H6            1 RES     
   10896 H6        -142.3374  -116.0734   215.9125 H6            1 RES     
   10897 H6        -140.0045  -116.9928   216.1344 H6            1 RES     
   10898 H6        -141.1474  -117.7877   217.2479 H6            1 RES     
   10899 H6        -140.3815  -116.5128   219.1301 H6            1 RES     
   10900 H6        -138.9966  -117.3421   218.4423 H6            1 RES     
   10901 H6        -139.4163  -114.4991   217.3781 H6            1 RES     
   10902 H6        -139.1812  -114.6250   219.1218 H6            1 RES     
   10903 H6        -137.0230  -115.6956   218.8862 H6            1 RES     
   10904 H6        -137.1121  -114.1473   217.9719 H6            1 RES     
   10905 H6        -137.4147  -115.4335   215.8290 H6            1 RES     
   10906 H6        -135.8781  -115.8233   216.6920 H6            1 RES     
   10907 H6        -137.2533  -116.9813   216.7637 H6            1 RES     
   10908 H6        -145.6129  -111.4623   219.1987 H6            1 RES     
   10909 H6        -143.9829  -111.6328   219.6195 H6            1 RES     
   10910 H6        -143.8726  -112.3629   222.5520 H6            1 RES     
   10911 H6        -145.3730  -112.2967   223.5404 H6            1 RES     
   10912 H6        -145.2876  -114.0737   220.9806 H6            1 RES     
   10913 H6        -146.9740  -115.3629   221.9461 H6            1 RES     
   10914 H6        -146.8140  -114.5335   223.5242 H6            1 RES     
   10915 H6        -148.8625  -113.9627   222.3143 H6            1 RES     
   10916 H6        -147.8441  -112.5262   222.6909 H6            1 RES     
   10917 H6        -147.2600  -112.2468   220.3822 H6            1 RES     
   10918 H6        -147.8166  -113.8696   219.9093 H6            1 RES     
   10919 H6        -149.2355  -112.0168   219.0948 H6            1 RES     
   10920 H6        -150.0920  -113.1301   220.2307 H6            1 RES     
   10921 H6        -149.6538  -111.4978   222.0948 H6            1 RES     
   10922 H6        -148.9364  -110.3277   220.9267 H6            1 RES     
   10923 H6        -151.1642  -110.2213   219.7548 H6            1 RES     
   10924 H6        -151.7593  -111.5835   220.7933 H6            1 RES     
   10925 H6        -150.9546  -108.8135   221.7549 H6            1 RES     
   10926 H6        -151.3647  -110.2135   222.8522 H6            1 RES     
   10927 H6        -153.2051  -108.8502   220.8223 H6            1 RES     
   10928 H6        -153.2640  -108.7374   222.6311 H6            1 RES     
   10929 H6        -153.6140  -110.3150   221.8241 H6            1 RES     
   10930 H6        -144.2627  -115.0849   223.6126 H6            1 RES     
   10931 H6        -143.2948  -114.5162   222.2194 H6            1 RES     
   10932 H6        -143.9618  -116.3132   220.7493 H6            1 RES     
   10933 H6        -143.1187  -116.7950   222.2038 H6            1 RES     
   10934 H6        -146.0686  -117.4352   221.6295 H6            1 RES     
   10935 H6        -144.6327  -118.4948   221.6336 H6            1 RES     
   10936 H6        -145.8549  -117.0260   224.0166 H6            1 RES     
   10937 H6        -144.2646  -117.8951   224.1019 H6            1 RES     
   10938 H6        -145.2884  -120.0623   223.6753 H6            1 RES     
   10939 H6        -146.8675  -119.3121   223.2705 H6            1 RES     
   10940 H6        -146.9977  -120.2351   225.5433 H6            1 RES     
   10941 H6        -147.1988  -118.4643   225.5036 H6            1 RES     
   10942 H6        -145.8855  -118.9951   227.4433 H6            1 RES     
   10943 H6        -144.8576  -118.1235   226.2975 H6            1 RES     
   10944 H6        -143.7702  -120.2774   225.5975 H6            1 RES     
   10945 H6        -143.5972  -119.9283   227.3471 H6            1 RES     
   10946 H6        -145.5727  -121.9550   226.1017 H6            1 RES     
   10947 H6        -144.0387  -122.3140   226.9570 H6            1 RES     
   10948 H6        -144.9518  -121.3145   229.0678 H6            1 RES     
   10949 H6        -146.5283  -121.0020   228.2315 H6            1 RES     
   10950 H6        -145.9551  -122.6835   228.4567 H6            1 RES     
   10951 C0        -149.1220   -99.1786   230.9805 C0            1 RES     
   10952 C0        -150.4003  -100.4546   230.5815 C0            1 RES     
   10953 C0        -150.3091  -101.4843   231.5094 C0            1 RES     
   10954 S1        -151.1887  -102.9130   231.1391 S1            1 RES     
   10955 C0        -151.8953  -102.5497   229.6818 C0            1 RES     
   10956 C0        -151.3830  -101.0930   229.4936 C0            1 RES     
   10957 C0        -149.0724  -101.4203   232.2892 C0            1 RES     
   10958 C0        -148.3509  -100.4856   231.3319 C0            1 RES     
   10959 C0        -147.5838  -101.1826   230.4500 C0            1 RES     
   10960 C0        -147.4763  -102.5487   230.6990 C0            1 RES     
   10961 S1        -148.2939  -103.0811   232.1784 S1            1 RES     
   10962 H2        -151.6170  -100.6190   228.5479 H2            1 RES     
   10963 H2        -147.2470  -100.7807   229.5085 H2            1 RES     
   10964 N3        -153.1396  -106.3087   229.1576 N3            1 RES     
   10965 C0        -152.5326  -105.1780   229.5493 C0            1 RES     
   10966 C0        -152.7636  -103.8323   228.9943 C0            1 RES     
   10967 C0        -153.7729  -103.9484   227.9210 C0            1 RES     
   10968 N3        -154.2428  -102.9077   227.1626 N3            1 RES     
   10969 S1        -155.3647  -103.6238   226.1607 S1            1 RES     
   10970 N3        -155.3102  -105.2207   226.5810 N3            1 RES     
   10971 C0        -154.3911  -105.2252   227.5557 C0            1 RES     
   10972 C0        -154.0720  -106.4109   228.1708 C0            1 RES     
   10973 H4        -151.8212  -105.3329   230.3297 H4            1 RES     
   10974 C5        -140.7528   -86.8611   243.4082 C5            1 RES     
   10975 C5        -141.6237   -87.7707   242.4956 C5            1 RES     
   10976 C5        -141.3926   -87.5379   240.9664 C5            1 RES     
   10977 C5        -141.9869   -88.6109   239.9301 C5            1 RES     
   10978 C5        -143.5431   -88.6825   239.6150 C5            1 RES     
   10979 C5        -144.2418   -89.9220   238.7475 C5            1 RES     
   10980 C5        -144.2018   -90.1695   237.1133 C5            1 RES     
   10981 C5        -145.1980   -91.2166   236.1177 C5            1 RES     
   10982 C5        -145.0968   -92.8522   235.6436 C5            1 RES     
   10983 C5        -146.0510   -94.0870   234.7444 C5            1 RES     
   10984 C5        -146.3106   -94.6452   233.0724 C5            1 RES     
   10985 C5        -145.9481   -93.2335   232.3312 C5            1 RES     
   10986 C5        -146.7038   -91.8818   232.7196 C5            1 RES     
   10987 C5        -145.9451   -90.5323   232.3569 C5            1 RES     
   10988 C5        -146.7631   -89.2014   232.5716 C5            1 RES     
   10989 C5        -148.1553   -89.2053   231.9032 C5            1 RES     
   10990 C5        -148.1332   -89.5443   230.3930 C5            1 RES     
   10991 C5        -148.5325   -88.4121   229.4397 C5            1 RES     
   10992 C5        -147.6457   -87.1738   229.5122 C5            1 RES     
   10993 C5        -147.1032   -96.1623   232.0868 C5            1 RES     
   10994 C0        -148.4400   -97.5885   231.9837 C0            1 RES     
   10995 C5        -149.6338   -96.9131   232.7061 C5            1 RES     
   10996 C5        -149.2860   -96.0515   234.0146 C5            1 RES     
   10997 C5        -149.1923   -96.8996   235.2946 C5            1 RES     
   10998 C5        -148.2926   -98.1564   235.2542 C5            1 RES     
   10999 C5        -146.8360   -97.9307   234.7937 C5            1 RES     
   11000 C5        -145.8901   -99.0888   235.0831 C5            1 RES     
   11001 C5        -146.4007  -100.4135   234.5151 C5            1 RES     
   11002 C5        -145.5636  -101.5771   235.0362 C5            1 RES     
   11003 C5        -146.2764  -102.8863   234.7254 C5            1 RES     
   11004 C5        -145.6218  -104.0789   235.3841 C5            1 RES     
   11005 C5        -150.2538   -94.8282   234.1625 C5            1 RES     
   11006 C5        -149.9043   -93.5796   235.0599 C5            1 RES     
   11007 C5        -149.9785   -93.6067   236.6109 C5            1 RES     
   11008 C5        -151.3386   -94.1007   237.1203 C5            1 RES     
   11009 C5        -151.5679   -93.8468   238.6274 C5            1 RES     
   11010 C5        -152.7540   -94.6717   239.1740 C5            1 RES     
   11011 C5        -154.1119   -94.4530   238.4744 C5            1 RES     
   11012 C5        -154.7399   -93.0604   238.6691 C5            1 RES     
   11013 C5        -155.0676   -92.6943   240.1303 C5            1 RES     
   11014 C5        -156.0535   -93.6603   240.7934 C5            1 RES     
   11015 H6        -139.6649   -87.0286   243.2366 H6            1 RES     
   11016 H6        -140.9657   -85.7805   243.2636 H6            1 RES     
   11017 H6        -140.9388   -87.0939   244.4843 H6            1 RES     
   11018 H6        -141.3422   -88.8129   242.7534 H6            1 RES     
   11019 H6        -142.6891   -87.6073   242.7557 H6            1 RES     
   11020 H6        -141.6808   -86.4934   240.7098 H6            1 RES     
   11021 H6        -140.2830   -87.5869   240.8553 H6            1 RES     
   11022 H6        -141.6464   -89.5980   240.2986 H6            1 RES     
   11023 H6        -141.4841   -88.3999   238.9650 H6            1 RES     
   11024 H6        -143.8512   -87.6871   239.2166 H6            1 RES     
   11025 H6        -143.9919   -88.7304   240.6361 H6            1 RES     
   11026 H6        -145.3183   -89.7436   238.9649 H6            1 RES     
   11027 H6        -143.9472   -90.8496   239.2679 H6            1 RES     
   11028 H6        -144.4898   -89.1395   236.7856 H6            1 RES     
   11029 H6        -143.1362   -90.2603   236.8184 H6            1 RES     
   11030 H6        -145.1302   -90.6478   235.1672 H6            1 RES     
   11031 H6        -146.2143   -91.0002   236.5113 H6            1 RES     
   11032 H6        -144.0584   -92.9372   235.2618 H6            1 RES     
   11033 H6        -145.0879   -93.2830   236.6655 H6            1 RES     
   11034 H6        -147.0394   -93.9796   235.2017 H6            1 RES     
   11035 H6        -145.6135   -94.9866   235.1972 H6            1 RES     
   11036 H6        -145.2895   -95.0616   232.9203 H6            1 RES     
   11037 H6        -145.8522   -93.3296   231.2311 H6            1 RES     
   11038 H6        -144.9067   -92.9876   232.6693 H6            1 RES     
   11039 H6        -146.8821   -91.8071   233.8106 H6            1 RES     
   11040 H6        -147.6802   -91.9132   232.2117 H6            1 RES     
   11041 H6        -145.5953   -90.5620   231.3115 H6            1 RES     
   11042 H6        -145.0078   -90.4235   232.9509 H6            1 RES     
   11043 H6        -146.1791   -88.3291   232.1901 H6            1 RES     
   11044 H6        -146.9192   -89.0152   233.6596 H6            1 RES     
   11045 H6        -148.7375   -89.9853   232.4318 H6            1 RES     
   11046 H6        -148.7190   -88.2633   232.0955 H6            1 RES     
   11047 H6        -147.1631   -89.9572   230.0704 H6            1 RES     
   11048 H6        -148.8743   -90.3545   230.2297 H6            1 RES     
   11049 H6        -149.5839   -88.1167   229.6392 H6            1 RES     
   11050 H6        -148.4772   -88.8216   228.4065 H6            1 RES     
   11051 H6        -146.5847   -87.4323   229.3155 H6            1 RES     
   11052 H6        -147.9853   -86.4513   228.7380 H6            1 RES     
   11053 H6        -147.7358   -86.6859   230.5042 H6            1 RES     
   11054 H6        -146.1868   -96.7769   231.9340 H6            1 RES     
   11055 H6        -147.1798   -95.7088   231.0760 H6            1 RES     
   11056 H6        -150.0339   -96.2444   231.9199 H6            1 RES     
   11057 H6        -150.4028   -97.6731   232.9470 H6            1 RES     
   11058 H6        -148.3368   -95.5563   233.9310 H6            1 RES     
   11059 H6        -148.8210   -96.2475   236.1049 H6            1 RES     
   11060 H6        -150.2099   -97.2391   235.5652 H6            1 RES     
   11061 H6        -148.2803   -98.5576   236.2889 H6            1 RES     
   11062 H6        -148.7750   -98.9066   234.5931 H6            1 RES     
   11063 H6        -146.8107   -97.8398   233.7257 H6            1 RES     
   11064 H6        -146.4190   -97.0222   235.2570 H6            1 RES     
   11065 H6        -144.8863   -98.8647   234.6527 H6            1 RES     
   11066 H6        -145.7964   -99.1622   236.1845 H6            1 RES     
   11067 H6        -147.4282  -100.5754   234.8917 H6            1 RES     
   11068 H6        -146.4305  -100.3972   233.4014 H6            1 RES     
   11069 H6        -144.5415  -101.5587   234.5974 H6            1 RES     
   11070 H6        -145.4918  -101.4847   236.1400 H6            1 RES     
   11071 H6        -146.2511  -103.0361   233.6378 H6            1 RES     
   11072 H6        -147.3270  -102.8331   235.0983 H6            1 RES     
   11073 H6        -144.5962  -104.2103   234.9863 H6            1 RES     
   11074 H6        -146.2274  -104.9830   235.1594 H6            1 RES     
   11075 H6        -145.5942  -103.9306   236.4838 H6            1 RES     
   11076 H6        -151.2807   -95.1792   234.3688 H6            1 RES     
   11077 H6        -150.2543   -94.3675   233.1486 H6            1 RES     
   11078 H6        -148.9292   -93.1506   234.7608 H6            1 RES     
   11079 H6        -150.6430   -92.8018   234.7678 H6            1 RES     
   11080 H6        -149.1604   -94.2037   237.0652 H6            1 RES     
   11081 H6        -149.8328   -92.5543   236.9562 H6            1 RES     
   11082 H6        -151.3777   -95.1888   236.9098 H6            1 RES     
   11083 H6        -152.1514   -93.5840   236.5674 H6            1 RES     
   11084 H6        -151.7179   -92.7587   238.8163 H6            1 RES     
   11085 H6        -150.6710   -94.1640   239.2029 H6            1 RES     
   11086 H6        -152.8598   -94.5008   240.2662 H6            1 RES     
   11087 H6        -152.4871   -95.7425   239.0426 H6            1 RES     
   11088 H6        -154.8229   -95.2186   238.8464 H6            1 RES     
   11089 H6        -154.0007   -94.6478   237.3879 H6            1 RES     
   11090 H6        -154.0632   -92.2878   238.2472 H6            1 RES     
   11091 H6        -155.6868   -93.0298   238.0855 H6            1 RES     
   11092 H6        -154.1385   -92.6444   240.7341 H6            1 RES     
   11093 H6        -155.5266   -91.6817   240.1339 H6            1 RES     
   11094 H6        -157.0002   -93.7091   240.2141 H6            1 RES     
   11095 H6        -155.6216   -94.6783   240.8791 H6            1 RES     
   11096 H6        -156.2845   -93.3065   241.8202 H6            1 RES     
   11097 C0        -153.9748  -111.2433   226.2698 C0            1 RES     
   11098 C0        -153.3430  -111.1650   228.0065 C0            1 RES     
   11099 C0        -154.3855  -110.7914   228.8451 C0            1 RES     
   11100 S1        -153.9448  -110.3547   230.4472 S1            1 RES     
   11101 C0        -152.2947  -110.5344   230.4431 C0            1 RES     
   11102 C0        -152.0854  -111.0357   228.9855 C0            1 RES     
   11103 C0        -155.5350  -110.2717   228.1033 C0            1 RES     
   11104 C0        -154.7685  -110.0190   226.8153 C0            1 RES     
   11105 C0        -154.3315  -108.7319   226.7484 C0            1 RES     
   11106 C0        -154.8036  -107.8864   227.7495 C0            1 RES     
   11107 S1        -155.9576  -108.6498   228.8567 S1            1 RES     
   11108 H2        -151.0589  -111.1493   228.6584 H2            1 RES     
   11109 H2        -153.5224  -108.4113   226.1128 H2            1 RES     
   11110 N3        -151.9306  -108.8185   234.0315 N3            1 RES     
   11111 C0        -152.3387  -109.2611   232.8323 C0            1 RES     
   11112 C0        -151.5435  -110.0662   231.8881 C0            1 RES     
   11113 C0        -150.2118  -110.2904   232.4886 C0            1 RES     
   11114 N3        -149.1895  -110.9918   231.9038 N3            1 RES     
   11115 S1        -147.9733  -110.9400   233.0411 S1            1 RES     
   11116 N3        -148.6192  -110.0475   234.2725 N3            1 RES     
   11117 C0        -149.8458  -109.7728   233.8091 C0            1 RES     
   11118 C0        -150.7040  -109.0305   234.5828 C0            1 RES     
   11119 H4        -153.3348  -108.9623   232.5921 H4            1 RES     
   11120 C5        -166.5753  -117.8479   213.0857 C5            1 RES     
   11121 C5        -165.5597  -117.5349   214.2211 C5            1 RES     
   11122 C5        -164.1960  -116.9650   213.7096 C5            1 RES     
   11123 C5        -163.1890  -116.3144   214.7778 C5            1 RES     
   11124 C5        -162.3559  -117.2177   215.7859 C5            1 RES     
   11125 C5        -161.4924  -116.5951   217.0680 C5            1 RES     
   11126 C5        -160.0356  -115.8139   217.0308 C5            1 RES     
   11127 C5        -158.9195  -115.4693   218.3406 C5            1 RES     
   11128 C5        -158.7624  -114.1935   219.4620 C5            1 RES     
   11129 C5        -157.7782  -113.7369   220.8997 C5            1 RES     
   11130 C5        -156.2266  -112.9504   221.2851 C5            1 RES     
   11131 C5        -155.4606  -113.3235   219.8896 C5            1 RES     
   11132 C5        -155.3484  -114.8360   219.3907 C5            1 RES     
   11133 C5        -155.0817  -115.0374   217.8362 C5            1 RES     
   11134 C5        -154.7902  -116.5157   217.3716 C5            1 RES     
   11135 C5        -153.6793  -117.2206   218.1804 C5            1 RES     
   11136 C5        -152.3443  -116.4391   218.2394 C5            1 RES     
   11137 C5        -151.1535  -117.0789   217.5161 C5            1 RES     
   11138 C5        -151.3506  -117.2814   216.0177 C5            1 RES     
   11139 C5        -155.2623  -112.1734   222.8238 C5            1 RES     
   11140 C0        -154.9052  -112.1485   224.7482 C0            1 RES     
   11141 C5        -155.0465  -113.6553   225.0840 C5            1 RES     
   11142 C5        -156.2487  -114.4403   224.3671 C5            1 RES     
   11143 C5        -157.5898  -114.3084   225.1090 C5            1 RES     
   11144 C5        -158.0601  -112.8847   225.4864 C5            1 RES     
   11145 C5        -158.1191  -111.8632   224.3297 C5            1 RES     
   11146 C5        -158.8954  -110.5908   224.6430 C5            1 RES     
   11147 C5        -158.3878  -109.8953   225.9066 C5            1 RES     
   11148 C5        -159.3400  -108.7785   226.3218 C5            1 RES     
   11149 C5        -158.9957  -108.3251   227.7339 C5            1 RES     
   11150 C5        -160.0143  -107.3650   228.3043 C5            1 RES     
   11151 C5        -155.8584  -115.9286   224.0717 C5            1 RES     
   11152 C5        -156.6241  -116.8067   223.0089 C5            1 RES     
   11153 C5        -158.0328  -117.4073   223.2666 C5            1 RES     
   11154 C5        -158.0933  -118.2111   224.5719 C5            1 RES     
   11155 C5        -159.3644  -119.0793   224.7095 C5            1 RES     
   11156 C5        -159.5705  -119.5687   226.1600 C5            1 RES     
   11157 C5        -158.4097  -120.3792   226.7737 C5            1 RES     
   11158 C5        -158.1581  -121.7595   226.1386 C5            1 RES     
   11159 C5        -159.3351  -122.7490   226.2480 C5            1 RES     
   11160 C5        -159.7409  -123.0551   227.6924 C5            1 RES     
   11161 H6        -166.8286  -116.9358   212.4985 H6            1 RES     
   11162 H6        -166.2047  -118.6233   212.3818 H6            1 RES     
   11163 H6        -167.5368  -118.2215   213.5131 H6            1 RES     
   11164 H6        -166.0533  -116.7783   214.8660 H6            1 RES     
   11165 H6        -165.3966  -118.4615   214.8079 H6            1 RES     
   11166 H6        -163.7007  -117.7280   213.0674 H6            1 RES     
   11167 H6        -164.4952  -116.1349   213.0259 H6            1 RES     
   11168 H6        -163.7975  -115.5928   215.3566 H6            1 RES     
   11169 H6        -162.4456  -115.7512   214.1787 H6            1 RES     
   11170 H6        -161.7300  -117.9115   215.1765 H6            1 RES     
   11171 H6        -163.1457  -117.8675   216.2334 H6            1 RES     
   11172 H6        -161.2837  -117.5231   217.6452 H6            1 RES     
   11173 H6        -162.2158  -115.9980   217.6494 H6            1 RES     
   11174 H6        -159.4770  -116.5417   216.3909 H6            1 RES     
   11175 H6        -160.1558  -114.9203   216.3844 H6            1 RES     
   11176 H6        -157.9816  -115.4348   217.7483 H6            1 RES     
   11177 H6        -158.8892  -116.4446   218.8721 H6            1 RES     
   11178 H6        -158.7920  -113.2905   218.8180 H6            1 RES     
   11179 H6        -159.7729  -114.2889   219.9091 H6            1 RES     
   11180 H6        -157.8328  -114.6475   221.5040 H6            1 RES     
   11181 H6        -158.4859  -113.0351   221.3603 H6            1 RES     
   11182 H6        -156.5114  -111.9338   220.9322 H6            1 RES     
   11183 H6        -154.4940  -112.7951   219.7668 H6            1 RES     
   11184 H6        -156.1059  -112.8907   219.0799 H6            1 RES     
   11185 H6        -156.2805  -115.4039   219.5811 H6            1 RES     
   11186 H6        -154.5375  -115.2979   219.9750 H6            1 RES     
   11187 H6        -154.2459  -114.3973   217.5078 H6            1 RES     
   11188 H6        -155.9466  -114.6826   217.2285 H6            1 RES     
   11189 H6        -154.5153  -116.5282   216.2891 H6            1 RES     
   11190 H6        -155.7107  -117.1378   217.4627 H6            1 RES     
   11191 H6        -154.0767  -117.3190   219.2096 H6            1 RES     
   11192 H6        -153.5156  -118.2713   217.8468 H6            1 RES     
   11193 H6        -152.4532  -115.3972   217.8954 H6            1 RES     
   11194 H6        -152.0513  -116.3741   219.3081 H6            1 RES     
   11195 H6        -150.9199  -118.0570   217.9862 H6            1 RES     
   11196 H6        -150.2811  -116.4046   217.6659 H6            1 RES     
   11197 H6        -151.5848  -116.3210   215.5139 H6            1 RES     
   11198 H6        -150.4075  -117.6870   215.5900 H6            1 RES     
   11199 H6        -152.1610  -118.0140   215.8255 H6            1 RES     
   11200 H6        -155.5389  -111.1029   222.6883 H6            1 RES     
   11201 H6        -154.2346  -112.1427   222.4040 H6            1 RES     
   11202 H6        -154.0790  -114.0637   224.7343 H6            1 RES     
   11203 H6        -155.1091  -113.7888   226.1819 H6            1 RES     
   11204 H6        -156.4349  -114.0737   223.3750 H6            1 RES     
   11205 H6        -158.3720  -114.7628   224.4754 H6            1 RES     
   11206 H6        -157.5285  -114.8884   226.0492 H6            1 RES     
   11207 H6        -159.0792  -113.0011   225.9103 H6            1 RES     
   11208 H6        -157.3908  -112.4987   226.2837 H6            1 RES     
   11209 H6        -157.1291  -111.5129   224.1138 H6            1 RES     
   11210 H6        -158.5591  -112.3216   223.4296 H6            1 RES     
   11211 H6        -158.8216  -109.8889   223.7799 H6            1 RES     
   11212 H6        -159.9560  -110.8831   224.7738 H6            1 RES     
   11213 H6        -158.3944  -110.6331   226.7309 H6            1 RES     
   11214 H6        -157.3473  -109.5188   225.7769 H6            1 RES     
   11215 H6        -159.2957  -107.9311   225.6024 H6            1 RES     
   11216 H6        -160.3703  -109.1914   226.3407 H6            1 RES     
   11217 H6        -158.0234  -107.8155   227.6987 H6            1 RES     
   11218 H6        -158.9584  -109.2131   228.4090 H6            1 RES     
   11219 H6        -160.0314  -106.4355   227.7017 H6            1 RES     
   11220 H6        -159.7269  -107.1256   229.3506 H6            1 RES     
   11221 H6        -161.0166  -107.8419   228.3085 H6            1 RES     
   11222 H6        -155.7362  -116.4842   225.0186 H6            1 RES     
   11223 H6        -154.8539  -115.8493   223.5975 H6            1 RES     
   11224 H6        -156.6305  -116.3018   222.0244 H6            1 RES     
   11225 H6        -155.9757  -117.6961   222.8526 H6            1 RES     
   11226 H6        -158.8319  -116.6371   223.2548 H6            1 RES     
   11227 H6        -158.2459  -118.0988   222.4155 H6            1 RES     
   11228 H6        -158.0477  -117.4734   225.3987 H6            1 RES     
   11229 H6        -157.2170  -118.8910   224.6294 H6            1 RES     
   11230 H6        -159.3228  -119.9383   224.0005 H6            1 RES     
   11231 H6        -160.2616  -118.4763   224.4493 H6            1 RES     
   11232 H6        -160.5151  -120.1483   226.2311 H6            1 RES     
   11233 H6        -159.7042  -118.6618   226.7881 H6            1 RES     
   11234 H6        -158.6147  -120.5176   227.8548 H6            1 RES     
   11235 H6        -157.4758  -119.7830   226.7180 H6            1 RES     
   11236 H6        -157.8938  -121.6308   225.0680 H6            1 RES     
   11237 H6        -157.2785  -122.2128   226.6477 H6            1 RES     
   11238 H6        -160.2150  -122.3662   225.6915 H6            1 RES     
   11239 H6        -159.0240  -123.7037   225.7708 H6            1 RES     
   11240 H6        -158.8772  -123.4596   228.2622 H6            1 RES     
   11241 H6        -160.1257  -122.1481   228.2019 H6            1 RES     
   11242 H6        -160.5534  -123.8119   227.6963 H6            1 RES     
   11243 C0        -149.7067  -105.2161   237.9639 C0            1 RES     
   11244 C0        -151.5219  -105.4687   237.7141 C0            1 RES     
   11245 C0        -151.8694  -106.7239   238.1972 C0            1 RES     
   11246 S1        -153.4390  -107.2843   237.7801 S1            1 RES     
   11247 C0        -154.0485  -106.0413   236.8642 C0            1 RES     
   11248 C0        -152.8529  -105.0487   236.9338 C0            1 RES     
   11249 C0        -150.6988  -107.5668   238.4440 C0            1 RES     
   11250 C0        -149.7450  -106.7315   237.6054 C0            1 RES     
   11251 C0        -149.6462  -107.2215   236.3397 C0            1 RES     
   11252 C0        -150.2757  -108.4444   236.1201 C0            1 RES     
   11253 S1        -151.0013  -109.1557   237.5719 S1            1 RES     
   11254 H2        -152.9329  -104.1556   236.3257 H2            1 RES     
   11255 H2        -149.2994  -106.6386   235.5022 H2            1 RES     
   11256 N3        -157.2324  -108.1885   235.7661 N3            1 RES     
   11257 C0        -156.0471  -107.7493   236.2162 C0            1 RES     
   11258 C0        -155.5789  -106.3520   236.2060 C0            1 RES     
   11259 C0        -156.6397  -105.5196   235.6010 C0            1 RES     
   11260 N3        -156.5682  -104.1639   235.4112 N3            1 RES     
   11261 S1        -158.0421  -103.7812   234.7355 S1            1 RES     
   11262 N3        -158.8154  -105.2367   234.6192 N3            1 RES     
   11263 C0        -157.9108  -106.0793   235.1356 C0            1 RES     
   11264 C0        -158.2088  -107.4177   235.2127 C0            1 RES     
   11265 H4        -155.4268  -108.5312   236.5945 H4            1 RES     
   11266 C5        -134.0508  -104.8363   249.4078 C5            1 RES     
   11267 C5        -135.4125  -104.7549   248.6611 C5            1 RES     
   11268 C5        -135.3401  -103.9959   247.2956 C5            1 RES     
   11269 C5        -136.5864  -104.1091   246.2894 C5            1 RES     
   11270 C5        -137.9476  -103.3375   246.5687 C5            1 RES     
   11271 C5        -139.3444  -103.6093   245.7015 C5            1 RES     
   11272 C5        -139.7110  -103.0936   244.1740 C5            1 RES     
   11273 C5        -141.2647  -103.0272   243.3606 C5            1 RES     
   11274 C5        -142.1646  -104.1359   242.4272 C5            1 RES     
   11275 C5        -143.7727  -104.2772   241.6284 C5            1 RES     
   11276 C5        -144.5622  -103.8544   240.0880 C5            1 RES     
   11277 C5        -143.6025  -102.5849   239.7127 C5            1 RES     
   11278 C5        -143.4082  -101.3703   240.7305 C5            1 RES     
   11279 C5        -142.0987  -100.4924   240.5235 C5            1 RES     
   11280 C5        -141.9946   -99.1894   241.4053 C5            1 RES     
   11281 C5        -143.2410   -98.2804   241.3321 C5            1 RES     
   11282 C5        -143.6531   -97.8832   239.8938 C5            1 RES     
   11283 C5        -143.5045   -96.4006   239.5327 C5            1 RES     
   11284 C5        -142.0823   -95.8595   239.6290 C5            1 RES     
   11285 C5        -146.2085  -104.2487   239.0706 C5            1 RES     
   11286 C0        -148.1073  -104.7239   239.0594 C0            1 RES     
   11287 C5        -148.5922  -103.9913   240.3367 C5            1 RES     
   11288 C5        -147.6207  -104.0550   241.6125 C5            1 RES     
   11289 C5        -147.8089  -105.3264   242.4580 C5            1 RES     
   11290 C5        -147.7773  -106.6852   241.7211 C5            1 RES     
   11291 C5        -146.5363  -106.9480   240.8403 C5            1 RES     
   11292 C5        -146.3593  -108.3970   240.4057 C5            1 RES     
   11293 C5        -147.6017  -108.9514   239.7077 C5            1 RES     
   11294 C5        -147.4795  -110.4596   239.5162 C5            1 RES     
   11295 C5        -148.8371  -111.0270   239.1245 C5            1 RES     
   11296 C5        -148.8579  -112.5383   239.1135 C5            1 RES     
   11297 C5        -147.7094  -102.7400   242.4596 C5            1 RES     
   11298 C5        -146.5878  -102.3201   243.4856 C5            1 RES     
   11299 C5        -146.4147  -102.9978   244.8722 C5            1 RES     
   11300 C5        -147.7177  -103.0086   245.6818 C5            1 RES     
   11301 C5        -147.5226  -103.3792   247.1694 C5            1 RES     
   11302 C5        -148.8609  -103.7412   247.8506 C5            1 RES     
   11303 C5        -149.9609  -102.6601   247.8021 C5            1 RES     
   11304 C5        -149.6706  -101.3839   248.6138 C5            1 RES     
   11305 C5        -149.5010  -101.6032   250.1303 C5            1 RES     
   11306 C5        -150.7353  -102.2154   250.7986 C5            1 RES     
   11307 H6        -133.2826  -105.3710   248.8036 H6            1 RES     
   11308 H6        -133.6488  -103.8358   249.6751 H6            1 RES     
   11309 H6        -134.1592  -105.4137   250.3572 H6            1 RES     
   11310 H6        -135.7190  -105.8061   248.4792 H6            1 RES     
   11311 H6        -136.1504  -104.2726   249.3337 H6            1 RES     
   11312 H6        -135.0376  -102.9405   247.4816 H6            1 RES     
   11313 H6        -134.4788  -104.4748   246.7713 H6            1 RES     
   11314 H6        -136.7963  -105.1925   246.1993 H6            1 RES     
   11315 H6        -136.2135  -103.7377   245.3138 H6            1 RES     
   11316 H6        -137.7114  -102.2486   246.6228 H6            1 RES     
   11317 H6        -138.1769  -103.6304   247.6213 H6            1 RES     
   11318 H6        -140.0898  -103.0915   246.3449 H6            1 RES     
   11319 H6        -139.5345  -104.6937   245.7797 H6            1 RES     
   11320 H6        -139.4278  -102.0180   244.2931 H6            1 RES     
   11321 H6        -138.9384  -103.5039   243.4918 H6            1 RES     
   11322 H6        -141.0464  -102.1914   242.6638 H6            1 RES     
   11323 H6        -141.9117  -102.5846   244.1481 H6            1 RES     
   11324 H6        -141.4249  -104.4910   241.6804 H6            1 RES     
   11325 H6        -142.2323  -104.9297   243.1987 H6            1 RES     
   11326 H6        -144.4470  -103.9601   242.4298 H6            1 RES     
   11327 H6        -143.8413  -105.3727   241.6021 H6            1 RES     
   11328 H6        -143.9834  -104.5623   239.4532 H6            1 RES     
   11329 H6        -143.7539  -102.2131   238.6795 H6            1 RES     
   11330 H6        -142.5615  -103.0034   239.6958 H6            1 RES     
   11331 H6        -143.3374  -101.7182   241.7801 H6            1 RES     
   11332 H6        -144.3045  -100.7378   240.6363 H6            1 RES     
   11333 H6        -141.9971  -100.2054   239.4636 H6            1 RES     
   11334 H6        -141.1776  -101.0856   240.7307 H6            1 RES     
   11335 H6        -141.0953   -98.5978   241.1070 H6            1 RES     
   11336 H6        -141.8444   -99.4588   242.4765 H6            1 RES     
   11337 H6        -144.0641   -98.8661   241.7863 H6            1 RES     
   11338 H6        -143.1484   -97.3828   241.9861 H6            1 RES     
   11339 H6        -143.1413   -98.4901   239.1286 H6            1 RES     
   11340 H6        -144.7336   -98.1147   239.7883 H6            1 RES     
   11341 H6        -144.1675   -95.7948   240.1853 H6            1 RES     
   11342 H6        -143.8520   -96.2850   238.4819 H6            1 RES     
   11343 H6        -141.3906   -96.4421   238.9862 H6            1 RES     
   11344 H6        -142.0833   -94.8023   239.2839 H6            1 RES     
   11345 H6        -141.7263   -95.8804   240.6794 H6            1 RES     
   11346 H6        -145.8252  -105.0645   238.4160 H6            1 RES     
   11347 H6        -146.1818  -103.4122   238.3406 H6            1 RES     
   11348 H6        -148.6744  -102.9441   239.9877 H6            1 RES     
   11349 H6        -149.6029  -104.3512   240.6126 H6            1 RES     
   11350 H6        -146.5844  -104.0512   241.3310 H6            1 RES     
   11351 H6        -147.0143  -105.3423   243.2248 H6            1 RES     
   11352 H6        -148.7849  -105.2617   242.9752 H6            1 RES     
   11353 H6        -147.8236  -107.4632   242.5113 H6            1 RES     
   11354 H6        -148.6931  -106.7630   241.0984 H6            1 RES     
   11355 H6        -146.6366  -106.4136   239.9162 H6            1 RES     
   11356 H6        -145.6179  -106.6300   241.3593 H6            1 RES     
   11357 H6        -145.4844  -108.4744   239.7192 H6            1 RES     
   11358 H6        -146.1468  -108.9851   241.3202 H6            1 RES     
   11359 H6        -148.4702  -108.7912   240.3739 H6            1 RES     
   11360 H6        -147.7956  -108.4306   238.7421 H6            1 RES     
   11361 H6        -146.7048  -110.7017   238.7553 H6            1 RES     
   11362 H6        -147.1925  -110.9098   240.4894 H6            1 RES     
   11363 H6        -149.0739  -110.6715   238.1127 H6            1 RES     
   11364 H6        -149.6059  -110.6872   239.8588 H6            1 RES     
   11365 H6        -148.1569  -112.9169   238.3437 H6            1 RES     
   11366 H6        -149.8897  -112.8756   238.8762 H6            1 RES     
   11367 H6        -148.5768  -112.9237   240.1157 H6            1 RES     
   11368 H6        -148.7095  -102.6517   242.9202 H6            1 RES     
   11369 H6        -147.6169  -101.9301   241.7009 H6            1 RES     
   11370 H6        -145.6017  -102.2835   242.9852 H6            1 RES     
   11371 H6        -146.8069  -101.2578   243.7296 H6            1 RES     
   11372 H6        -146.0046  -104.0263   244.7943 H6            1 RES     
   11373 H6        -145.6570  -102.3954   245.4298 H6            1 RES     
   11374 H6        -148.3865  -103.7457   245.1929 H6            1 RES     
   11375 H6        -148.1838  -102.0010   245.6473 H6            1 RES     
   11376 H6        -147.0117  -102.5489   247.7095 H6            1 RES     
   11377 H6        -146.8736  -104.2783   247.2509 H6            1 RES     
   11378 H6        -148.6774  -104.0467   248.9024 H6            1 RES     
   11379 H6        -149.2575  -104.6352   247.3228 H6            1 RES     
   11380 H6        -150.9062  -103.1081   248.1703 H6            1 RES     
   11381 H6        -150.1522  -102.3780   246.7463 H6            1 RES     
   11382 H6        -148.7574  -100.8931   248.2164 H6            1 RES     
   11383 H6        -150.5206  -100.6824   248.4601 H6            1 RES     
   11384 H6        -148.6177  -102.2431   250.3320 H6            1 RES     
   11385 H6        -149.3140  -100.6130   250.5997 H6            1 RES     
   11386 H6        -151.6285  -101.5778   250.6253 H6            1 RES     
   11387 H6        -150.9331  -103.2377   250.4163 H6            1 RES     
   11388 H6        -150.5632  -102.2941   251.8927 H6            1 RES     
   11389 C0        -161.1128  -110.3818   232.0894 C0            1 RES     
   11390 C0        -160.2750  -111.3718   233.4082 C0            1 RES     
   11391 C0        -160.7848  -110.9929   234.6436 C0            1 RES     
   11392 S1        -159.9259  -111.5593   236.0195 S1            1 RES     
   11393 C0        -158.6785  -112.4263   235.3506 C0            1 RES     
   11394 C0        -159.0192  -112.2616   233.8418 C0            1 RES     
   11395 C0        -161.5545  -109.7505   234.5686 C0            1 RES     
   11396 C0        -160.9950  -109.3196   233.2226 C0            1 RES     
   11397 C0        -159.9354  -108.4798   233.3774 C0            1 RES     
   11398 C0        -159.6918  -108.0573   234.6820 C0            1 RES     
   11399 S1        -160.8799  -108.6346   235.8633 S1            1 RES     
   11400 H2        -158.2962  -112.6581   233.1391 H2            1 RES     
   11401 H2        -159.1988  -108.3048   232.6104 H2            1 RES     
   11402 N3        -156.8545  -112.8446   238.8793 N3            1 RES     
   11403 C0        -157.6255  -112.4764   237.8447 C0            1 RES     
   11404 C0        -157.5737  -113.0354   236.4820 C0            1 RES     
   11405 C0        -156.5140  -114.0652   236.4512 C0            1 RES     
   11406 N3        -156.1616  -114.8034   235.3512 N3            1 RES     
   11407 S1        -154.9572  -115.8056   235.9171 S1            1 RES     
   11408 N3        -154.7925  -115.3721   237.5030 N3            1 RES     
   11409 C0        -155.7165  -114.4103   237.6304 C0            1 RES     
   11410 C0        -155.8818  -113.7966   238.8478 C0            1 RES     
   11411 H4        -158.3119  -111.6968   238.0902 H4            1 RES     
   11412 C5        -177.1793  -104.1045   223.2193 C5            1 RES     
   11413 C5        -175.9942  -104.8137   223.9342 C5            1 RES     
   11414 C5        -174.6466  -104.7444   223.1436 C5            1 RES     
   11415 C5        -173.2922  -105.1569   223.9012 C5            1 RES     
   11416 C5        -172.9508  -106.6769   224.2164 C5            1 RES     
   11417 C5        -171.6948  -107.1429   225.2075 C5            1 RES     
   11418 C5        -170.0780  -107.1609   224.8621 C5            1 RES     
   11419 C5        -168.7654  -107.9674   225.7026 C5            1 RES     
   11420 C5        -167.7501  -107.5409   227.0054 C5            1 RES     
   11421 C5        -166.4626  -108.2587   228.0404 C5            1 RES     
   11422 C5        -164.6976  -108.5023   228.0337 C5            1 RES     
   11423 C5        -164.5026  -108.5112   226.4103 C5            1 RES     
   11424 C5        -165.3293  -109.5178   225.4870 C5            1 RES     
   11425 C5        -165.4724  -109.1016   223.9591 C5            1 RES     
   11426 C5        -166.1283  -110.1760   223.0095 C5            1 RES     
   11427 C5        -165.4820  -111.5755   223.1038 C5            1 RES     
   11428 C5        -163.9491  -111.5822   222.8884 C5            1 RES     
   11429 C5        -163.4471  -112.2853   221.6218 C5            1 RES     
   11430 C5        -163.9606  -111.6902   220.3153 C5            1 RES     
   11431 C5        -163.2326  -109.0065   229.2586 C5            1 RES     
   11432 C0        -162.6185  -110.0001   230.8294 C0            1 RES     
   11433 C5        -163.5152  -111.2613   230.7376 C5            1 RES     
   11434 C5        -165.0472  -111.0235   230.3228 C5            1 RES     
   11435 C5        -165.9505  -110.6581   231.5132 C5            1 RES     
   11436 C5        -165.4848  -109.5086   232.4364 C5            1 RES     
   11437 C5        -165.1524  -108.1723   231.7373 C5            1 RES     
   11438 C5        -165.0309  -106.9771   232.6735 C5            1 RES     
   11439 C5        -164.0282  -107.2208   233.8018 C5            1 RES     
   11440 C5        -164.1203  -106.1144   234.8476 C5            1 RES     
   11441 C5        -163.3612  -106.5408   236.0968 C5            1 RES     
   11442 C5        -163.5695  -105.5962   237.2583 C5            1 RES     
   11443 C5        -165.6008  -112.2246   229.4827 C5            1 RES     
   11444 C5        -166.8832  -112.0984   228.5738 C5            1 RES     
   11445 C5        -168.3255  -112.0588   229.1486 C5            1 RES     
   11446 C5        -168.6111  -113.2387   230.0866 C5            1 RES     
   11447 C5        -170.1084  -113.4150   230.4262 C5            1 RES     
   11448 C5        -170.3154  -114.3501   231.6381 C5            1 RES     
   11449 C5        -169.7181  -115.7673   231.5112 C5            1 RES     
   11450 C5        -170.3795  -116.6719   230.4547 C5            1 RES     
   11451 C5        -171.8718  -116.9719   230.6990 C5            1 RES     
   11452 C5        -172.1412  -117.6732   232.0333 C5            1 RES     
   11453 H6        -176.9747  -103.0207   223.0624 H6            1 RES     
   11454 H6        -177.4192  -104.5595   222.2348 H6            1 RES     
   11455 H6        -178.1031  -104.1608   223.8438 H6            1 RES     
   11456 H6        -175.8746  -104.2926   224.9070 H6            1 RES     
   11457 H6        -176.2805  -105.8686   224.1202 H6            1 RES     
   11458 H6        -174.7680  -105.2724   222.1708 H6            1 RES     
   11459 H6        -174.5405  -103.6615   222.8946 H6            1 RES     
   11460 H6        -173.2964  -104.5830   224.8481 H6            1 RES     
   11461 H6        -172.4690  -104.7800   223.2617 H6            1 RES     
   11462 H6        -172.9219  -107.2232   223.2441 H6            1 RES     
   11463 H6        -173.8842  -107.0335   224.7142 H6            1 RES     
   11464 H6        -171.9462  -108.2148   225.3676 H6            1 RES     
   11465 H6        -171.8615  -106.6164   226.1630 H6            1 RES     
   11466 H6        -170.1279  -107.6904   223.8780 H6            1 RES     
   11467 H6        -169.7846  -106.1241   224.5981 H6            1 RES     
   11468 H6        -168.0752  -108.0915   224.8424 H6            1 RES     
   11469 H6        -169.1960  -108.9772   225.8748 H6            1 RES     
   11470 H6        -167.3770  -106.5379   226.7125 H6            1 RES     
   11471 H6        -168.5565  -107.3677   227.7468 H6            1 RES     
   11472 H6        -166.9150  -109.2129   228.3272 H6            1 RES     
   11473 H6        -166.5777  -107.6039   228.9141 H6            1 RES     
   11474 H6        -164.4233  -107.4274   228.1254 H6            1 RES     
   11475 H6        -163.4399  -108.4717   226.0975 H6            1 RES     
   11476 H6        -164.9196  -107.5290   226.0628 H6            1 RES     
   11477 H6        -166.3749  -109.6333   225.8350 H6            1 RES     
   11478 H6        -164.8293  -110.4956   225.5659 H6            1 RES     
   11479 H6        -164.4877  -108.8259   223.5463 H6            1 RES     
   11480 H6        -166.0796  -108.1730   223.8484 H6            1 RES     
   11481 H6        -166.0843  -109.8260   221.9497 H6            1 RES     
   11482 H6        -167.2103  -110.2948   223.2498 H6            1 RES     
   11483 H6        -165.6960  -111.9341   224.1297 H6            1 RES     
   11484 H6        -165.9842  -112.3184   222.4420 H6            1 RES     
   11485 H6        -163.5156  -110.5693   222.9301 H6            1 RES     
   11486 H6        -163.5023  -112.1360   223.7405 H6            1 RES     
   11487 H6        -163.7231  -113.3598   221.6636 H6            1 RES     
   11488 H6        -162.3368  -112.2117   221.6269 H6            1 RES     
   11489 H6        -163.7004  -110.6143   220.2388 H6            1 RES     
   11490 H6        -163.4838  -112.2326   219.4696 H6            1 RES     
   11491 H6        -165.0594  -111.8177   220.2327 H6            1 RES     
   11492 H6        -162.8868  -107.9898   229.5547 H6            1 RES     
   11493 H6        -162.4435  -109.2499   228.5160 H6            1 RES     
   11494 H6        -163.0076  -111.8515   229.9507 H6            1 RES     
   11495 H6        -163.4644  -111.8257   231.6894 H6            1 RES     
   11496 H6        -165.1552  -110.2147   229.6247 H6            1 RES     
   11497 H6        -166.9427  -110.3853   231.1125 H6            1 RES     
   11498 H6        -166.0711  -111.5551   232.1496 H6            1 RES     
   11499 H6        -166.3137  -109.3377   233.1545 H6            1 RES     
   11500 H6        -164.5964  -109.8578   233.0034 H6            1 RES     
   11501 H6        -164.1843  -108.2406   231.2818 H6            1 RES     
   11502 H6        -165.9102  -107.9352   230.9735 H6            1 RES     
   11503 H6        -164.7200  -106.0791   232.0905 H6            1 RES     
   11504 H6        -166.0381  -106.7946   233.0972 H6            1 RES     
   11505 H6        -164.3103  -108.1593   234.3152 H6            1 RES     
   11506 H6        -162.9904  -107.3293   233.4112 H6            1 RES     
   11507 H6        -163.7297  -105.1538   234.4448 H6            1 RES     
   11508 H6        -165.1875  -105.9897   235.1263 H6            1 RES     
   11509 H6        -162.2903  -106.5573   235.8536 H6            1 RES     
   11510 H6        -163.7147  -107.5494   236.4185 H6            1 RES     
   11511 H6        -163.1649  -104.5964   237.0051 H6            1 RES     
   11512 H6        -163.0343  -106.0016   238.1436 H6            1 RES     
   11513 H6        -164.6518  -105.5270   237.4949 H6            1 RES     
   11514 H6        -165.6571  -113.1324   230.1095 H6            1 RES     
   11515 H6        -164.8125  -112.3957   228.7149 H6            1 RES     
   11516 H6        -166.7666  -111.2645   227.8560 H6            1 RES     
   11517 H6        -166.8718  -113.0084   227.9354 H6            1 RES     
   11518 H6        -168.5530  -111.1003   229.6599 H6            1 RES     
   11519 H6        -169.0192  -112.1254   228.2756 H6            1 RES     
   11520 H6        -168.0324  -113.0514   231.0139 H6            1 RES     
   11521 H6        -168.2630  -114.1812   229.6132 H6            1 RES     
   11522 H6        -170.6642  -113.7878   229.5349 H6            1 RES     
   11523 H6        -170.5486  -112.4332   230.7062 H6            1 RES     
   11524 H6        -171.3967  -114.4163   231.8822 H6            1 RES     
   11525 H6        -169.8211  -113.8635   232.5063 H6            1 RES     
   11526 H6        -169.7888  -116.2651   232.4997 H6            1 RES     
   11527 H6        -168.6338  -115.6903   231.2894 H6            1 RES     
   11528 H6        -170.2640  -116.2124   229.4506 H6            1 RES     
   11529 H6        -169.8308  -117.6399   230.4443 H6            1 RES     
   11530 H6        -172.4675  -116.0376   230.6472 H6            1 RES     
   11531 H6        -172.2234  -117.6412   229.8840 H6            1 RES     
   11532 H6        -171.5686  -118.6231   232.0966 H6            1 RES     
   11533 H6        -171.8710  -117.0228   232.8902 H6            1 RES     
   11534 H6        -173.2237  -117.9058   232.1173 H6            1 RES     
   11535 C0        -152.4108  -112.7671   242.5717 C0            1 RES     
   11536 C0        -154.0734  -112.0512   242.9519 C0            1 RES     
   11537 C0        -154.9754  -113.0907   243.1399 C0            1 RES     
   11538 S1        -156.6349  -112.6488   243.1915 S1            1 RES     
   11539 C0        -156.5906  -111.0038   242.9738 C0            1 RES     
   11540 C0        -155.0527  -110.7892   242.8811 C0            1 RES     
   11541 C0        -154.4470  -114.3743   242.6765 C0            1 RES     
   11542 C0        -153.3395  -113.7719   241.8273 C0            1 RES     
   11543 C0        -153.7335  -113.6348   240.5319 C0            1 RES     
   11544 C0        -154.9606  -114.2122   240.2148 C0            1 RES     
   11545 S1        -155.7147  -115.0915   241.5560 S1            1 RES     
   11546 H2        -154.7206  -109.7876   242.6358 H2            1 RES     
   11547 H2        -153.2614  -112.9615   239.8353 H2            1 RES     
   11548 N3        -160.5572  -110.7830   242.5609 N3            1 RES     
   11549 C0        -159.2736  -111.1643   242.6458 C0            1 RES     
   11550 C0        -158.1182  -110.2775   242.8712 C0            1 RES     
   11551 C0        -158.6203  -108.8914   242.9751 C0            1 RES     
   11552 N3        -157.8409  -107.7820   243.1773 N3            1 RES     
   11553 S1        -158.9409  -106.5325   243.2410 S1            1 RES     
   11554 N3        -160.3979  -107.2736   243.0004 N3            1 RES     
   11555 C0        -160.0433  -108.5593   242.8734 C0            1 RES     
   11556 C0        -161.0162  -109.5051   242.6610 C0            1 RES     
   11557 H4        -159.1396  -112.2158   242.5204 H4            1 RES     
   11558 C5        -137.5784  -124.4719   246.9548 C5            1 RES     
   11559 C5        -138.7652  -123.4751   246.8262 C5            1 RES     
   11560 C5        -138.5043  -122.3087   245.8176 C5            1 RES     
   11561 C5        -139.7463  -121.3993   245.3605 C5            1 RES     
   11562 C5        -140.3855  -120.3209   246.3376 C5            1 RES     
   11563 C5        -141.8161  -119.5304   246.0125 C5            1 RES     
   11564 C5        -142.0746  -118.2876   244.9532 C5            1 RES     
   11565 C5        -143.4372  -117.1882   244.8326 C5            1 RES     
   11566 C5        -144.9364  -117.2399   244.0203 C5            1 RES     
   11567 C5        -146.4562  -116.2848   243.8721 C5            1 RES     
   11568 C5        -147.1137  -114.9220   242.9313 C5            1 RES     
   11569 C5        -145.6864  -114.1896   242.6151 C5            1 RES     
   11570 C5        -144.6912  -113.7812   243.7948 C5            1 RES     
   11571 C5        -143.1683  -113.5834   243.3825 C5            1 RES     
   11572 C5        -142.2196  -113.0057   244.5017 C5            1 RES     
   11573 C5        -142.7455  -111.7143   245.1656 C5            1 RES     
   11574 C5        -143.0925  -110.5835   244.1671 C5            1 RES     
   11575 C5        -142.2074  -109.3332   244.2268 C5            1 RES     
   11576 C5        -140.7304  -109.5824   243.9417 C5            1 RES     
   11577 C5        -148.8400  -114.0500   242.5307 C5            1 RES     
   11578 C0        -150.6560  -113.5768   243.0871 C0            1 RES     
   11579 C5        -150.4411  -113.3594   244.6069 C5            1 RES     
   11580 C5        -149.4784  -114.4051   245.3520 C5            1 RES     
   11581 C5        -150.2012  -115.6886   245.7956 C5            1 RES     
   11582 C5        -151.0467  -116.4341   244.7374 C5            1 RES     
   11583 C5        -150.3201  -116.7954   243.4235 C5            1 RES     
   11584 C5        -151.0484  -117.8098   242.5514 C5            1 RES     
   11585 C5        -152.4823  -117.3829   242.2356 C5            1 RES     
   11586 C5        -153.2492  -118.5272   241.5808 C5            1 RES     
   11587 C5        -154.7353  -118.1957   241.5739 C5            1 RES     
   11588 C5        -155.5918  -119.3595   241.1304 C5            1 RES     
   11589 C5        -148.6860  -113.7176   246.5157 C5            1 RES     
   11590 C5        -147.3727  -114.3416   247.1261 C5            1 RES     
   11591 C5        -147.3846  -115.5625   248.0859 C5            1 RES     
   11592 C5        -148.3250  -115.3553   249.2802 C5            1 RES     
   11593 C5        -148.1325  -116.3915   250.4104 C5            1 RES     
   11594 C5        -149.3169  -116.3853   251.4020 C5            1 RES     
   11595 C5        -149.6238  -115.0354   252.0836 C5            1 RES     
   11596 C5        -148.5492  -114.5298   253.0641 C5            1 RES     
   11597 C5        -148.2891  -115.4496   254.2735 C5            1 RES     
   11598 C5        -149.5293  -115.6785   255.1420 C5            1 RES     
   11599 H6        -137.3442  -124.9593   245.9809 H6            1 RES     
   11600 H6        -136.6526  -123.9885   247.3334 H6            1 RES     
   11601 H6        -137.8347  -125.2960   247.6631 H6            1 RES     
   11602 H6        -139.6273  -124.0782   246.4726 H6            1 RES     
   11603 H6        -138.9926  -123.0724   247.8339 H6            1 RES     
   11604 H6        -137.6424  -121.7025   246.1775 H6            1 RES     
   11605 H6        -138.1504  -122.8293   244.8957 H6            1 RES     
   11606 H6        -140.5327  -122.1109   245.0426 H6            1 RES     
   11607 H6        -139.3924  -120.8409   244.4707 H6            1 RES     
   11608 H6        -139.5804  -119.6006   246.6157 H6            1 RES     
   11609 H6        -140.5664  -120.9157   247.2648 H6            1 RES     
   11610 H6        -142.0347  -119.0836   247.0078 H6            1 RES     
   11611 H6        -142.5598  -120.3263   245.8352 H6            1 RES     
   11612 H6        -141.2280  -117.6274   245.2673 H6            1 RES     
   11613 H6        -141.7804  -118.6455   243.9452 H6            1 RES     
   11614 H6        -142.9074  -116.3235   244.3817 H6            1 RES     
   11615 H6        -143.5940  -116.9075   245.8962 H6            1 RES     
   11616 H6        -144.6489  -117.5115   242.9837 H6            1 RES     
   11617 H6        -145.3080  -118.1716   244.4934 H6            1 RES     
   11618 H6        -146.7026  -116.0961   244.9214 H6            1 RES     
   11619 H6        -147.1237  -117.0966   243.5543 H6            1 RES     
   11620 H6        -147.1352  -115.4472   241.9500 H6            1 RES     
   11621 H6        -145.7697  -113.3738   241.8692 H6            1 RES     
   11622 H6        -145.0709  -114.9681   242.0913 H6            1 RES     
   11623 H6        -144.6580  -114.5501   244.5919 H6            1 RES     
   11624 H6        -145.0878  -112.8506   244.2294 H6            1 RES     
   11625 H6        -143.0962  -112.9335   242.4945 H6            1 RES     
   11626 H6        -142.7116  -114.5446   243.0498 H6            1 RES     
   11627 H6        -141.2051  -112.8093   244.0777 H6            1 RES     
   11628 H6        -142.0746  -113.7581   245.3113 H6            1 RES     
   11629 H6        -143.6696  -112.0091   245.7004 H6            1 RES     
   11630 H6        -142.0674  -111.3463   245.9699 H6            1 RES     
   11631 H6        -143.1337  -110.9424   243.1254 H6            1 RES     
   11632 H6        -144.1203  -110.2398   244.4078 H6            1 RES     
   11633 H6        -142.3084  -108.8583   245.2252 H6            1 RES     
   11634 H6        -142.5956  -108.6225   243.4636 H6            1 RES     
   11635 H6        -140.5915  -110.0563   242.9480 H6            1 RES     
   11636 H6        -140.2006  -108.6046   243.9468 H6            1 RES     
   11637 H6        -140.2828  -110.2227   244.7291 H6            1 RES     
   11638 H6        -149.0841  -114.5642   241.5731 H6            1 RES     
   11639 H6        -148.4716  -113.0854   242.1219 H6            1 RES     
   11640 H6        -149.9837  -112.3518   244.6359 H6            1 RES     
   11641 H6        -151.4218  -113.3160   245.1202 H6            1 RES     
   11642 H6        -148.6750  -114.7347   244.7202 H6            1 RES     
   11643 H6        -149.4380  -116.3927   246.1717 H6            1 RES     
   11644 H6        -150.8795  -115.4371   246.6327 H6            1 RES     
   11645 H6        -151.3891  -117.3712   245.2237 H6            1 RES     
   11646 H6        -151.9377  -115.8135   244.5060 H6            1 RES     
   11647 H6        -150.2540  -115.9240   242.8024 H6            1 RES     
   11648 H6        -149.3106  -117.1839   243.6327 H6            1 RES     
   11649 H6        -150.4868  -117.9514   241.5988 H6            1 RES     
   11650 H6        -151.0542  -118.7684   243.1066 H6            1 RES     
   11651 H6        -152.9960  -117.1705   243.1921 H6            1 RES     
   11652 H6        -152.5069  -116.4622   241.6087 H6            1 RES     
   11653 H6        -152.8727  -118.7198   240.5518 H6            1 RES     
   11654 H6        -153.1084  -119.4374   242.2004 H6            1 RES     
   11655 H6        -154.8940  -117.3644   240.8740 H6            1 RES     
   11656 H6        -155.0572  -117.9177   242.6058 H6            1 RES     
   11657 H6        -155.3526  -119.6220   240.0810 H6            1 RES     
   11658 H6        -156.6595  -119.0612   241.2059 H6            1 RES     
   11659 H6        -155.4151  -120.2295   241.7967 H6            1 RES     
   11660 H6        -149.3800  -113.4118   247.3188 H6            1 RES     
   11661 H6        -148.2833  -112.7900   246.0493 H6            1 RES     
   11662 H6        -146.6273  -114.5263   246.3296 H6            1 RES     
   11663 H6        -146.9237  -113.5255   247.7329 H6            1 RES     
   11664 H6        -147.6323  -116.5106   247.5645 H6            1 RES     
   11665 H6        -146.3425  -115.6756   248.4719 H6            1 RES     
   11666 H6        -149.3582  -115.4171   248.8822 H6            1 RES     
   11667 H6        -148.1527  -114.3489   249.7172 H6            1 RES     
   11668 H6        -147.1683  -116.2101   250.9393 H6            1 RES     
   11669 H6        -148.0877  -117.4151   249.9786 H6            1 RES     
   11670 H6        -149.1677  -117.1719   252.1716 H6            1 RES     
   11671 H6        -150.2210  -116.6724   250.8229 H6            1 RES     
   11672 H6        -150.5852  -115.1307   252.6283 H6            1 RES     
   11673 H6        -149.7931  -114.2618   251.3066 H6            1 RES     
   11674 H6        -147.5950  -114.3740   252.5181 H6            1 RES     
   11675 H6        -148.8793  -113.5393   253.4492 H6            1 RES     
   11676 H6        -147.8899  -116.4281   253.9363 H6            1 RES     
   11677 H6        -147.5121  -114.9691   254.9071 H6            1 RES     
   11678 H6        -149.9331  -114.7102   255.5073 H6            1 RES     
   11679 H6        -150.3188  -116.2180   254.5799 H6            1 RES     
   11680 H6        -149.2569  -116.3022   256.0194 H6            1 RES     
   11681 C0        -165.5319  -109.1445   240.1207 C0            1 RES     
   11682 C0        -165.1848  -110.8722   240.6827 C0            1 RES     
   11683 C0        -165.1930  -110.9008   242.0715 C0            1 RES     
   11684 S1        -164.5848  -112.3331   242.7997 S1            1 RES     
   11685 C0        -164.1539  -113.2625   241.4936 C0            1 RES     
   11686 C0        -164.5828  -112.3130   240.3385 C0            1 RES     
   11687 C0        -165.1451  -109.5592   242.6542 C0            1 RES     
   11688 C0        -164.6651  -108.8723   241.3860 C0            1 RES     
   11689 C0        -163.3094  -108.7546   241.3744 C0            1 RES     
   11690 C0        -162.6670  -109.1127   242.5571 C0            1 RES     
   11691 S1        -163.7679  -109.5630   243.8708 S1            1 RES     
   11692 H2        -164.3248  -112.6290   239.3349 H2            1 RES     
   11693 H2        -162.7338  -108.6026   240.4760 H2            1 RES     
   11694 N3        -162.3302  -115.9624   243.8040 N3            1 RES     
   11695 C0        -162.9217  -114.8751   243.2861 C0            1 RES     
   11696 C0        -163.4078  -114.7280   241.9025 C0            1 RES     
   11697 C0        -163.1180  -115.9849   241.1810 C0            1 RES     
   11698 N3        -163.4158  -116.2269   239.8650 N3            1 RES     
   11699 S1        -162.8969  -117.7915   239.6237 S1            1 RES     
   11700 N3        -162.2678  -118.2312   241.0869 N3            1 RES     
   11701 C0        -162.4688  -117.1302   241.8232 C0            1 RES     
   11702 C0        -162.0685  -117.1200   243.1369 C0            1 RES     
   11703 H4        -163.0108  -114.0734   243.9851 H4            1 RES     
   11704 C5        -176.5968   -93.2139   240.1035 C5            1 RES     
   11705 C5        -175.9074   -94.6078   240.0863 C5            1 RES     
   11706 C5        -174.8951   -94.7977   238.9093 C5            1 RES     
   11707 C5        -173.8961   -96.0540   238.9535 C5            1 RES     
   11708 C5        -174.4093   -97.5295   238.6604 C5            1 RES     
   11709 C5        -173.4828   -98.8879   238.9314 C5            1 RES     
   11710 C5        -172.2277   -99.4624   238.0213 C5            1 RES     
   11711 C5        -171.4679  -101.0443   238.0390 C5            1 RES     
   11712 C5        -170.1933  -101.7394   238.9348 C5            1 RES     
   11713 C5        -169.3737  -103.3274   239.1591 C5            1 RES     
   11714 C5        -168.0683  -104.2938   238.4266 C5            1 RES     
   11715 C5        -168.1743  -103.6653   236.9208 C5            1 RES     
   11716 C5        -169.5555  -103.6744   236.1201 C5            1 RES     
   11717 C5        -169.6868  -102.6077   234.9482 C5            1 RES     
   11718 C5        -170.9702  -102.7334   234.0409 C5            1 RES     
   11719 C5        -171.2029  -104.1514   233.4752 C5            1 RES     
   11720 C5        -169.9893  -104.7380   232.7141 C5            1 RES     
   11721 C5        -170.1721  -104.9446   231.2061 C5            1 RES     
   11722 C5        -170.4712  -103.6734   230.4191 C5            1 RES     
   11723 C5        -166.9548  -105.8783   238.8149 C5            1 RES     
   11724 C0        -166.7521  -107.6220   239.6809 C0            1 RES     
   11725 C5        -168.1983  -108.1680   239.5645 C5            1 RES     
   11726 C5        -169.3842  -107.1217   239.8373 C5            1 RES     
   11727 C5        -169.7285  -106.9672   241.3286 C5            1 RES     
   11728 C5        -168.5630  -106.6872   242.3052 C5            1 RES     
   11729 C5        -167.6629  -105.4819   241.9561 C5            1 RES     
   11730 C5        -166.7510  -105.0201   243.0852 C5            1 RES     
   11731 C5        -165.8862  -106.1544   243.6361 C5            1 RES     
   11732 C5        -165.1804  -105.7163   244.9152 C5            1 RES     
   11733 C5        -164.5964  -106.9390   245.6097 C5            1 RES     
   11734 C5        -164.0567  -106.6271   246.9867 C5            1 RES     
   11735 C5        -170.6368  -107.4400   238.9515 C5            1 RES     
   11736 C5        -171.7600  -106.3712   238.6636 C5            1 RES     
   11737 C5        -172.8238  -105.9589   239.7173 C5            1 RES     
   11738 C5        -173.5606  -107.1692   240.3053 C5            1 RES     
   11739 C5        -174.8268  -106.7963   241.1091 C5            1 RES     
   11740 C5        -175.3198  -107.9723   241.9809 C5            1 RES     
   11741 C5        -175.6379  -109.2841   241.2332 C5            1 RES     
   11742 C5        -176.8489  -109.2274   240.2834 C5            1 RES     
   11743 C5        -178.1948  -108.9107   240.9652 C5            1 RES     
   11744 C5        -178.5896  -109.9313   242.0363 C5            1 RES     
   11745 H6        -175.8542   -92.3899   240.2058 H6            1 RES     
   11746 H6        -177.2029   -93.0250   239.1919 H6            1 RES     
   11747 H6        -177.2824   -93.1275   240.9805 H6            1 RES     
   11748 H6        -175.3649   -94.6869   241.0514 H6            1 RES     
   11749 H6        -176.6961   -95.3862   240.0482 H6            1 RES     
   11750 H6        -175.4430   -94.7231   237.9427 H6            1 RES     
   11751 H6        -174.2482   -93.8899   238.9668 H6            1 RES     
   11752 H6        -173.4296   -96.0258   239.9573 H6            1 RES     
   11753 H6        -173.1174   -95.8396   238.1943 H6            1 RES     
   11754 H6        -174.8444   -97.5359   237.6332 H6            1 RES     
   11755 H6        -175.2894   -97.6164   239.3416 H6            1 RES     
   11756 H6        -174.2566   -99.6834   238.8527 H6            1 RES     
   11757 H6        -173.1738   -98.8286   239.9892 H6            1 RES     
   11758 H6        -172.7197   -99.4157   237.0178 H6            1 RES     
   11759 H6        -171.4557   -98.6667   237.9826 H6            1 RES     
   11760 H6        -171.1110  -101.0636   236.9884 H6            1 RES     
   11761 H6        -172.3516  -101.7177   238.0556 H6            1 RES     
   11762 H6        -169.3796  -100.9923   238.8312 H6            1 RES     
   11763 H6        -170.6371  -101.5777   239.9382 H6            1 RES     
   11764 H6        -170.2261  -103.9987   239.3011 H6            1 RES     
   11765 H6        -168.9646  -103.1546   240.1633 H6            1 RES     
   11766 H6        -167.2337  -103.6180   238.7196 H6            1 RES     
   11767 H6        -167.3346  -103.9649   236.2621 H6            1 RES     
   11768 H6        -168.0261  -102.5612   237.0564 H6            1 RES     
   11769 H6        -170.4177  -103.4573   236.7812 H6            1 RES     
   11770 H6        -169.6765  -104.6923   235.7182 H6            1 RES     
   11771 H6        -168.7959  -102.6443   234.2993 H6            1 RES     
   11772 H6        -169.6857  -101.5666   235.3474 H6            1 RES     
   11773 H6        -170.9102  -102.0090   233.1928 H6            1 RES     
   11774 H6        -171.8812  -102.4548   234.6198 H6            1 RES     
   11775 H6        -171.4120  -104.7923   234.3540 H6            1 RES     
   11776 H6        -172.1310  -104.2145   232.8614 H6            1 RES     
   11777 H6        -169.0671  -104.1585   232.8858 H6            1 RES     
   11778 H6        -169.7947  -105.7456   233.1374 H6            1 RES     
   11779 H6        -170.9864  -105.6787   231.0314 H6            1 RES     
   11780 H6        -169.2237  -105.3799   230.8197 H6            1 RES     
   11781 H6        -169.6745  -102.9158   230.5694 H6            1 RES     
   11782 H6        -170.5181  -103.9308   229.3382 H6            1 RES     
   11783 H6        -171.4525  -103.2508   230.7171 H6            1 RES     
   11784 H6        -166.0614  -105.3702   239.2444 H6            1 RES     
   11785 H6        -166.5644  -106.0864   237.7963 H6            1 RES     
   11786 H6        -168.2370  -108.5025   238.5100 H6            1 RES     
   11787 H6        -168.3169  -109.0534   240.2195 H6            1 RES     
   11788 H6        -169.1360  -106.1334   239.4984 H6            1 RES     
   11789 H6        -170.4519  -106.1382   241.4237 H6            1 RES     
   11790 H6        -170.2222  -107.8958   241.6722 H6            1 RES     
   11791 H6        -169.0300  -106.5071   243.2958 H6            1 RES     
   11792 H6        -167.9400  -107.6037   242.3729 H6            1 RES     
   11793 H6        -166.9831  -105.7602   241.1751 H6            1 RES     
   11794 H6        -168.2728  -104.6229   241.6335 H6            1 RES     
   11795 H6        -166.0928  -104.1985   242.7183 H6            1 RES     
   11796 H6        -167.4045  -104.6214   243.8860 H6            1 RES     
   11797 H6        -166.5544  -106.9894   243.9191 H6            1 RES     
   11798 H6        -165.1614  -106.5237   242.8747 H6            1 RES     
   11799 H6        -164.3936  -104.9611   244.6958 H6            1 RES     
   11800 H6        -165.9382  -105.2715   245.5936 H6            1 RES     
   11801 H6        -163.7700  -107.3168   244.9929 H6            1 RES     
   11802 H6        -165.3926  -107.7119   245.7298 H6            1 RES     
   11803 H6        -163.2127  -105.9141   246.9054 H6            1 RES     
   11804 H6        -163.7023  -107.5729   247.4498 H6            1 RES     
   11805 H6        -164.8643  -106.2003   247.6173 H6            1 RES     
   11806 H6        -171.0855  -108.4012   239.2597 H6            1 RES     
   11807 H6        -170.2109  -107.5802   237.9321 H6            1 RES     
   11808 H6        -171.3176  -105.4538   238.2313 H6            1 RES     
   11809 H6        -172.3575  -106.8017   237.8308 H6            1 RES     
   11810 H6        -172.3964  -105.3386   240.5325 H6            1 RES     
   11811 H6        -173.5673  -105.3163   239.1861 H6            1 RES     
   11812 H6        -172.8354  -107.6909   240.9624 H6            1 RES     
   11813 H6        -173.8747  -107.8471   239.4835 H6            1 RES     
   11814 H6        -175.6303  -106.4452   240.4211 H6            1 RES     
   11815 H6        -174.5972  -105.9611   241.8062 H6            1 RES     
   11816 H6        -176.2005  -107.6547   242.5782 H6            1 RES     
   11817 H6        -174.5071  -108.1972   242.7047 H6            1 RES     
   11818 H6        -175.8130  -110.0802   241.9852 H6            1 RES     
   11819 H6        -174.7452  -109.6044   240.6576 H6            1 RES     
   11820 H6        -176.6610  -108.4741   239.4898 H6            1 RES     
   11821 H6        -176.9389  -110.2196   239.7876 H6            1 RES     
   11822 H6        -178.1718  -107.8965   241.4137 H6            1 RES     
   11823 H6        -178.9837  -108.9149   240.1819 H6            1 RES     
   11824 H6        -178.6383  -110.9527   241.6019 H6            1 RES     
   11825 H6        -177.8709  -109.9247   242.8812 H6            1 RES     
   11826 H6        -179.5891  -109.6719   242.4444 H6            1 RES     
   11827 C0        -158.0657  -119.5057   245.4307 C0            1 RES     
   11828 C0        -158.9658  -118.3824   246.5924 C0            1 RES     
   11829 C0        -160.2486  -118.8777   246.7893 C0            1 RES     
   11830 S1        -161.3508  -117.8233   247.5801 S1            1 RES     
   11831 C0        -160.4377  -116.4641   247.8524 C0            1 RES     
   11832 C0        -159.0775  -116.9349   247.2624 C0            1 RES     
   11833 C0        -160.6028  -119.9055   245.8096 C0            1 RES     
   11834 C0        -159.5006  -119.5477   244.8259 C0            1 RES     
   11835 C0        -159.9541  -118.6912   243.8706 C0            1 RES     
   11836 C0        -161.3273  -118.4583   243.8782 C0            1 RES     
   11837 S1        -162.2154  -119.4066   245.0833 S1            1 RES     
   11838 H2        -158.2904  -116.1919   247.2154 H2            1 RES     
   11839 H2        -159.3070  -118.0653   243.2781 H2            1 RES     
   11840 N3        -163.6211  -114.3566   249.0261 N3            1 RES     
   11841 C0        -162.7705  -115.2585   248.5128 C0            1 RES     
   11842 C0        -161.2992  -115.1778   248.5415 C0            1 RES     
   11843 C0        -160.9242  -113.9219   249.2245 C0            1 RES     
   11844 N3        -159.6404  -113.4914   249.4374 N3            1 RES     
   11845 S1        -159.8359  -112.0601   250.2671 S1            1 RES     
   11846 N3        -161.4753  -111.8872   250.3795 N3            1 RES     
   11847 C0        -161.9187  -112.9895   249.7603 C0            1 RES     
   11848 C0        -163.2716  -113.2025   249.6581 C0            1 RES     
   11849 H4        -163.2640  -116.0814   248.0453 H4            1 RES     
   11850 C5        -151.7366  -137.1268   240.3660 C5            1 RES     
   11851 C5        -152.1741  -135.7687   240.9845 C5            1 RES     
   11852 C5        -151.4762  -134.5265   240.3395 C5            1 RES     
   11853 C5        -152.0598  -133.0661   240.6636 C5            1 RES     
   11854 C5        -151.8275  -132.3776   242.0772 C5            1 RES     
   11855 C5        -152.6098  -130.9853   242.5529 C5            1 RES     
   11856 C5        -152.3020  -129.4316   242.0784 C5            1 RES     
   11857 C5        -152.8248  -127.9194   242.7994 C5            1 RES     
   11858 C5        -154.2082  -126.9366   242.6250 C5            1 RES     
   11859 C5        -154.9438  -125.4551   243.3379 C5            1 RES     
   11860 C5        -154.8763  -123.6844   243.1510 C5            1 RES     
   11861 C5        -153.3553  -123.6035   242.5563 C5            1 RES     
   11862 C5        -152.1269  -124.2490   243.3457 C5            1 RES     
   11863 C5        -150.8396  -124.5842   242.4747 C5            1 RES     
   11864 C5        -149.5651  -125.0504   243.2775 C5            1 RES     
   11865 C5        -149.1723  -124.1068   244.4353 C5            1 RES     
   11866 C5        -148.9891  -122.6284   244.0145 C5            1 RES     
   11867 C5        -147.5635  -122.0715   244.1037 C5            1 RES     
   11868 C5        -146.5411  -122.7913   243.2311 C5            1 RES     
   11869 C5        -155.8670  -122.0643   243.6938 C5            1 RES     
   11870 C0        -156.9987  -121.1408   244.9968 C0            1 RES     
   11871 C5        -156.4590  -121.7418   246.3199 C5            1 RES     
   11872 C5        -156.1329  -123.3131   246.3135 C5            1 RES     
   11873 C5        -157.3635  -124.1913   246.5980 C5            1 RES     
   11874 C5        -158.6369  -123.9286   245.7615 C5            1 RES     
   11875 C5        -158.4545  -123.9471   244.2281 C5            1 RES     
   11876 C5        -159.7514  -124.0284   243.4336 C5            1 RES     
   11877 C5        -160.7366  -122.9221   243.8125 C5            1 RES     
   11878 C5        -162.1022  -123.1841   243.1858 C5            1 RES     
   11879 C5        -163.1333  -122.2664   243.8285 C5            1 RES     
   11880 C5        -164.5490  -122.5980   243.4156 C5            1 RES     
   11881 C5        -154.9180  -123.6444   247.2458 C5            1 RES     
   11882 C5        -154.0934  -124.9821   247.1138 C5            1 RES     
   11883 C5        -154.6259  -126.3550   247.6073 C5            1 RES     
   11884 C5        -155.0875  -126.3090   249.0696 C5            1 RES     
   11885 C5        -155.3234  -127.7039   249.6916 C5            1 RES     
   11886 C5        -156.1283  -127.6167   251.0071 C5            1 RES     
   11887 C5        -155.5214  -126.7320   252.1162 C5            1 RES     
   11888 C5        -154.2062  -127.2483   252.7290 C5            1 RES     
   11889 C5        -154.3097  -128.6176   253.4296 C5            1 RES     
   11890 C5        -155.3102  -128.6343   254.5886 C5            1 RES     
   11891 H6        -151.9718  -137.1773   239.2783 H6            1 RES     
   11892 H6        -150.6519  -137.3272   240.4972 H6            1 RES     
   11893 H6        -152.2892  -137.9707   240.8446 H6            1 RES     
   11894 H6        -153.2692  -135.7008   240.8169 H6            1 RES     
   11895 H6        -151.9750  -135.8022   242.0748 H6            1 RES     
   11896 H6        -150.3785  -134.5947   240.5139 H6            1 RES     
   11897 H6        -151.6236  -134.6789   239.2436 H6            1 RES     
   11898 H6        -153.1476  -133.1321   240.4675 H6            1 RES     
   11899 H6        -151.6040  -132.3918   239.9112 H6            1 RES     
   11900 H6        -150.7260  -132.2955   242.2338 H6            1 RES     
   11901 H6        -152.1562  -133.1734   242.7878 H6            1 RES     
   11902 H6        -152.3811  -130.9828   243.6417 H6            1 RES     
   11903 H6        -153.6868  -131.1982   242.4403 H6            1 RES     
   11904 H6        -151.1942  -129.4306   242.2337 H6            1 RES     
   11905 H6        -152.4217  -129.3925   240.9762 H6            1 RES     
   11906 H6        -151.9851  -127.2791   242.4578 H6            1 RES     
   11907 H6        -152.6267  -128.1042   243.8770 H6            1 RES     
   11908 H6        -154.2901  -126.8145   241.5253 H6            1 RES     
   11909 H6        -154.9522  -127.7089   242.9078 H6            1 RES     
   11910 H6        -154.8722  -125.6656   244.4093 H6            1 RES     
   11911 H6        -155.9898  -125.6518   243.0685 H6            1 RES     
   11912 H6        -155.3423  -123.6481   242.1407 H6            1 RES     
   11913 H6        -153.0907  -122.5994   242.1682 H6            1 RES     
   11914 H6        -153.3681  -124.2493   241.6386 H6            1 RES     
   11915 H6        -152.3981  -125.2172   243.8112 H6            1 RES     
   11916 H6        -151.8653  -123.5418   244.1480 H6            1 RES     
   11917 H6        -150.5629  -123.7149   241.8551 H6            1 RES     
   11918 H6        -151.0527  -125.3872   241.7310 H6            1 RES     
   11919 H6        -148.6956  -125.1570   242.5845 H6            1 RES     
   11920 H6        -149.7338  -126.0607   243.7174 H6            1 RES     
   11921 H6        -150.0047  -124.1661   245.1636 H6            1 RES     
   11922 H6        -148.2855  -124.4769   244.9998 H6            1 RES     
   11923 H6        -149.3887  -122.4269   243.0068 H6            1 RES     
   11924 H6        -149.5994  -122.0136   244.7087 H6            1 RES     
   11925 H6        -147.2227  -122.1004   245.1599 H6            1 RES     
   11926 H6        -147.6091  -121.0069   243.7829 H6            1 RES     
   11927 H6        -146.8497  -122.7803   242.1654 H6            1 RES     
   11928 H6        -145.5656  -122.2655   243.3246 H6            1 RES     
   11929 H6        -146.4042  -123.8380   243.5718 H6            1 RES     
   11930 H6        -156.5050  -121.9317   242.7903 H6            1 RES     
   11931 H6        -155.0971  -121.2936   243.4785 H6            1 RES     
   11932 H6        -155.5223  -121.1714   246.4700 H6            1 RES     
   11933 H6        -157.1535  -121.5030   247.1492 H6            1 RES     
   11934 H6        -155.7607  -123.6440   245.3621 H6            1 RES     
   11935 H6        -157.0702  -125.2443   246.4403 H6            1 RES     
   11936 H6        -157.6438  -124.0678   247.6611 H6            1 RES     
   11937 H6        -159.3580  -124.7238   246.0434 H6            1 RES     
   11938 H6        -159.0578  -122.9485   246.0697 H6            1 RES     
   11939 H6        -158.0171  -123.0211   243.9108 H6            1 RES     
   11940 H6        -157.8118  -124.7888   243.9241 H6            1 RES     
   11941 H6        -159.5240  -123.9634   242.3441 H6            1 RES     
   11942 H6        -160.1985  -125.0198   243.6450 H6            1 RES     
   11943 H6        -160.8850  -122.9548   244.9083 H6            1 RES     
   11944 H6        -160.3468  -121.9150   243.5381 H6            1 RES     
   11945 H6        -162.0665  -123.0432   242.0829 H6            1 RES     
   11946 H6        -162.3923  -124.2311   243.4136 H6            1 RES     
   11947 H6        -162.9143  -121.2374   243.5135 H6            1 RES     
   11948 H6        -163.0766  -122.3662   244.9387 H6            1 RES     
   11949 H6        -164.6674  -122.4418   242.3253 H6            1 RES     
   11950 H6        -165.2436  -121.9275   243.9658 H6            1 RES     
   11951 H6        -164.7801  -123.6502   243.6831 H6            1 RES     
   11952 H6        -155.1865  -123.4565   248.3007 H6            1 RES     
   11953 H6        -154.1497  -122.8921   246.9562 H6            1 RES     
   11954 H6        -153.7147  -125.1012   246.0811 H6            1 RES     
   11955 H6        -153.1770  -124.8141   247.7203 H6            1 RES     
   11956 H6        -155.4373  -126.7527   246.9628 H6            1 RES     
   11957 H6        -153.7755  -127.0749   247.5276 H6            1 RES     
   11958 H6        -156.0295  -125.7239   249.0845 H6            1 RES     
   11959 H6        -154.3189  -125.7949   249.6849 H6            1 RES     
   11960 H6        -154.3506  -128.2234   249.8527 H6            1 RES     
   11961 H6        -155.9234  -128.3295   248.9953 H6            1 RES     
   11962 H6        -156.3190  -128.6377   251.4001 H6            1 RES     
   11963 H6        -157.1186  -127.1837   250.7486 H6            1 RES     
   11964 H6        -156.2721  -126.6237   252.9254 H6            1 RES     
   11965 H6        -155.3555  -125.7090   251.7203 H6            1 RES     
   11966 H6        -153.4282  -127.3056   251.9390 H6            1 RES     
   11967 H6        -153.8651  -126.5018   253.4803 H6            1 RES     
   11968 H6        -154.5801  -129.4066   252.6983 H6            1 RES     
   11969 H6        -153.3072  -128.8678   253.8398 H6            1 RES     
   11970 H6        -155.0447  -127.8636   255.3434 H6            1 RES     
   11971 H6        -156.3442  -128.4562   254.2288 H6            1 RES     
   11972 H6        -155.2927  -129.6306   255.0785 H6            1 RES     
   11973 C0        -167.1672  -109.7980   249.2014 C0            1 RES     
   11974 C0        -167.7513  -111.5475   249.0631 C0            1 RES     
   11975 C0        -167.5511  -112.1835   250.2817 C0            1 RES     
   11976 S1        -167.7315  -113.8920   250.2792 S1            1 RES     
   11977 C0        -168.1041  -114.2261   248.6965 C0            1 RES     
   11978 C0        -168.1134  -112.7833   248.1152 C0            1 RES     
   11979 C0        -166.6749  -111.4181   251.1695 C0            1 RES     
   11980 C0        -166.1055  -110.5310   250.0742 C0            1 RES     
   11981 C0        -164.9349  -111.0329   249.5949 C0            1 RES     
   11982 C0        -164.4190  -112.1214   250.2942 C0            1 RES     
   11983 S1        -165.3571  -112.5700   251.7292 S1            1 RES     
   11984 H2        -168.2388  -112.6975   247.0426 H2            1 RES     
   11985 H2        -164.5246  -110.7694   248.6338 H2            1 RES     
   11986 N3        -167.7407  -118.1627   249.2668 N3            1 RES     
   11987 C0        -167.7042  -116.8238   249.3476 C0            1 RES     
   11988 C0        -168.2415  -115.8796   248.3517 C0            1 RES     
   11989 C0        -168.8173  -116.6664   247.2410 C0            1 RES     
   11990 N3        -169.4057  -116.1387   246.1211 N3            1 RES     
   11991 S1        -169.8878  -117.4799   245.2586 S1            1 RES     
   11992 N3        -169.3831  -118.7508   246.1860 N3            1 RES     
   11993 C0        -168.8189  -118.1312   247.2313 C0            1 RES     
   11994 C0        -168.2756  -118.8839   248.2434 C0            1 RES     
   11995 H4        -167.2205  -116.4704   250.2310 H4            1 RES     
   11996 C5        -167.3768   -92.4878   257.9496 C5            1 RES     
   11997 C5        -167.5891   -93.8710   257.2711 C5            1 RES     
   11998 C5        -167.0564   -93.9429   255.8024 C5            1 RES     
   11999 C5        -166.9297   -95.3829   255.1034 C5            1 RES     
   12000 C5        -168.2137   -96.1759   254.6046 C5            1 RES     
   12001 C5        -168.1665   -97.7642   254.1025 C5            1 RES     
   12002 C5        -167.6059   -98.3618   252.6664 C5            1 RES     
   12003 C5        -167.8593   -99.9381   251.9377 C5            1 RES     
   12004 C5        -167.0599  -101.4409   252.0508 C5            1 RES     
   12005 C5        -167.2348  -103.1402   251.4802 C5            1 RES     
   12006 C5        -166.8217  -104.1444   250.0675 C5            1 RES     
   12007 C5        -166.8014  -102.9385   248.9634 C5            1 RES     
   12008 C5        -168.0629  -101.9797   248.7679 C5            1 RES     
   12009 C5        -167.7668  -100.5695   248.0955 C5            1 RES     
   12010 C5        -169.0302   -99.6974   247.7358 C5            1 RES     
   12011 C5        -170.0970  -100.4483   246.9093 C5            1 RES     
   12012 C5        -169.5530  -101.1032   245.6165 C5            1 RES     
   12013 C5        -170.0587  -100.5132   244.2949 C5            1 RES     
   12014 C5        -169.7245   -99.0406   244.0838 C5            1 RES     
   12015 C5        -166.7283  -106.0436   249.5332 C5            1 RES     
   12016 C0        -167.3904  -107.8770   249.7118 C0            1 RES     
   12017 C5        -168.8929  -107.6121   249.9866 C5            1 RES     
   12018 C5        -169.2377  -106.3942   250.9731 C5            1 RES     
   12019 C5        -169.1941  -106.7845   252.4605 C5            1 RES     
   12020 C5        -167.9304  -107.5151   252.9702 C5            1 RES     
   12021 C5        -166.5832  -106.8181   252.6804 C5            1 RES     
   12022 C5        -165.4013  -107.3628   253.4719 C5            1 RES     
   12023 C5        -165.2354  -108.8736   253.3048 C5            1 RES     
   12024 C5        -164.2110  -109.4124   254.2981 C5            1 RES     
   12025 C5        -164.3004  -110.9319   254.3361 C5            1 RES     
   12026 C5        -163.4659  -111.5392   255.4404 C5            1 RES     
   12027 C5        -170.5792  -105.6953   250.5647 C5            1 RES     
   12028 C5        -170.9503  -104.2383   251.0403 C5            1 RES     
   12029 C5        -171.4217  -103.9155   252.4844 C5            1 RES     
   12030 C5        -172.6000  -104.7947   252.9227 C5            1 RES     
   12031 C5        -173.2985  -104.3020   254.2102 C5            1 RES     
   12032 C5        -174.2132  -105.3882   254.8180 C5            1 RES     
   12033 C5        -175.3200  -105.9378   253.8939 C5            1 RES     
   12034 C5        -176.4300  -104.9367   253.5231 C5            1 RES     
   12035 C5        -177.2443  -104.3985   254.7163 C5            1 RES     
   12036 C5        -177.9607  -105.4956   255.5087 C5            1 RES     
   12037 H6        -166.2972   -92.2191   258.0048 H6            1 RES     
   12038 H6        -167.9133   -91.6678   257.4265 H6            1 RES     
   12039 H6        -167.7482   -92.5074   259.0023 H6            1 RES     
   12040 H6        -167.0351   -94.6012   257.8972 H6            1 RES     
   12041 H6        -168.6709   -94.1124   257.3031 H6            1 RES     
   12042 H6        -167.6175   -93.2133   255.1758 H6            1 RES     
   12043 H6        -166.0156   -93.5467   255.8782 H6            1 RES     
   12044 H6        -166.3721   -96.0131   255.8230 H6            1 RES     
   12045 H6        -166.2967   -95.2223   254.2077 H6            1 RES     
   12046 H6        -168.7374   -95.5322   253.8590 H6            1 RES     
   12047 H6        -168.8715   -96.1577   255.5064 H6            1 RES     
   12048 H6        -169.2521   -98.0075   254.0880 H6            1 RES     
   12049 H6        -167.7117   -98.3247   254.9373 H6            1 RES     
   12050 H6        -168.1428   -97.6621   251.9783 H6            1 RES     
   12051 H6        -166.5405   -98.0654   252.5781 H6            1 RES     
   12052 H6        -167.7469   -99.6438   250.8736 H6            1 RES     
   12053 H6        -168.9516  -100.0800   252.0838 H6            1 RES     
   12054 H6        -165.9978  -101.1720   251.8756 H6            1 RES     
   12055 H6        -167.1718  -101.5649   253.1472 H6            1 RES     
   12056 H6        -168.2803  -103.3501   251.7257 H6            1 RES     
   12057 H6        -166.6439  -103.6325   252.2637 H6            1 RES     
   12058 H6        -165.7186  -104.1165   250.2133 H6            1 RES     
   12059 H6        -166.3874  -103.2501   247.9835 H6            1 RES     
   12060 H6        -166.0467  -102.2037   249.3505 H6            1 RES     
   12061 H6        -168.5408  -101.7236   249.7342 H6            1 RES     
   12062 H6        -168.7904  -102.5410   248.1613 H6            1 RES     
   12063 H6        -167.1636  -100.7031   247.1820 H6            1 RES     
   12064 H6        -167.1249   -99.9360   248.7511 H6            1 RES     
   12065 H6        -168.7157   -98.7824   247.1777 H6            1 RES     
   12066 H6        -169.5271   -99.3352   248.6657 H6            1 RES     
   12067 H6        -170.4821  -101.2461   247.5742 H6            1 RES     
   12068 H6        -170.9884   -99.8147   246.6945 H6            1 RES     
   12069 H6        -168.4511  -101.1352   245.5947 H6            1 RES     
   12070 H6        -169.8847  -102.1625   245.6229 H6            1 RES     
   12071 H6        -171.1587  -100.6481   244.2289 H6            1 RES     
   12072 H6        -169.5873  -101.0996   243.4750 H6            1 RES     
   12073 H6        -168.6299   -98.8688   244.1417 H6            1 RES     
   12074 H6        -170.0789   -98.7402   243.0734 H6            1 RES     
   12075 H6        -170.2440   -98.4103   244.8343 H6            1 RES     
   12076 H6        -165.6481  -106.2331   249.7285 H6            1 RES     
   12077 H6        -166.6881  -105.9255   248.4297 H6            1 RES     
   12078 H6        -169.2790  -107.3871   248.9740 H6            1 RES     
   12079 H6        -169.3755  -108.5409   250.3494 H6            1 RES     
   12080 H6        -168.5416  -105.5829   250.8711 H6            1 RES     
   12081 H6        -169.3102  -105.8611   253.0552 H6            1 RES     
   12082 H6        -170.0569  -107.4429   252.6754 H6            1 RES     
   12083 H6        -168.0531  -107.6087   254.0693 H6            1 RES     
   12084 H6        -167.9187  -108.5346   252.5308 H6            1 RES     
   12085 H6        -166.3075  -106.9881   251.6584 H6            1 RES     
   12086 H6        -166.6569  -105.7359   252.8736 H6            1 RES     
   12087 H6        -164.4672  -106.8501   253.1441 H6            1 RES     
   12088 H6        -165.5857  -107.1193   254.5368 H6            1 RES     
   12089 H6        -166.1986  -109.3550   253.5584 H6            1 RES     
   12090 H6        -164.9703  -109.1431   252.2568 H6            1 RES     
   12091 H6        -163.1850  -109.0738   254.0332 H6            1 RES     
   12092 H6        -164.4746  -109.0326   255.3073 H6            1 RES     
   12093 H6        -163.9338  -111.3172   253.3752 H6            1 RES     
   12094 H6        -165.3599  -111.2360   254.5117 H6            1 RES     
   12095 H6        -162.3944  -111.3201   255.2636 H6            1 RES     
   12096 H6        -163.6264  -112.6387   255.4405 H6            1 RES     
   12097 H6        -163.7878  -111.1301   256.4208 H6            1 RES     
   12098 H6        -171.4290  -106.3832   250.7221 H6            1 RES     
   12099 H6        -170.4726  -105.5396   249.4672 H6            1 RES     
   12100 H6        -170.1499  -103.5266   250.7631 H6            1 RES     
   12101 H6        -171.8105  -103.9398   250.4024 H6            1 RES     
   12102 H6        -170.5980  -103.9831   253.2254 H6            1 RES     
   12103 H6        -171.7579  -102.8502   252.4801 H6            1 RES     
   12104 H6        -172.1915  -105.8136   253.0801 H6            1 RES     
   12105 H6        -173.3640  -104.8190   252.1170 H6            1 RES     
   12106 H6        -173.8705  -103.3677   254.0048 H6            1 RES     
   12107 H6        -172.5362  -104.0624   254.9834 H6            1 RES     
   12108 H6        -174.6607  -105.0173   255.7643 H6            1 RES     
   12109 H6        -173.5580  -106.2442   255.0884 H6            1 RES     
   12110 H6        -175.7837  -106.8151   254.3891 H6            1 RES     
   12111 H6        -174.8608  -106.3259   252.9615 H6            1 RES     
   12112 H6        -175.9862  -104.0798   252.9740 H6            1 RES     
   12113 H6        -177.1330  -105.4498   252.8297 H6            1 RES     
   12114 H6        -176.5914  -103.8175   255.3994 H6            1 RES     
   12115 H6        -178.0166  -103.7051   254.3177 H6            1 RES     
   12116 H6        -178.6363  -106.0770   254.8456 H6            1 RES     
   12117 H6        -177.2345  -106.1833   255.9885 H6            1 RES     
   12118 H6        -178.5678  -105.0333   256.3153 H6            1 RES     
   12119 C0        -165.9609  -123.5306   248.0816 C0            1 RES     
   12120 C0        -165.8872  -122.7740   249.7678 C0            1 RES     
   12121 C0        -167.1778  -122.6809   250.2730 C0            1 RES     
   12122 S1        -167.3667  -121.7239   251.6873 S1            1 RES     
   12123 C0        -165.8239  -121.1889   251.9853 C0            1 RES     
   12124 C0        -165.0686  -121.8942   250.8227 C0            1 RES     
   12125 C0        -168.1939  -122.8901   249.2408 C0            1 RES     
   12126 C0        -167.2531  -122.6609   248.0691 C0            1 RES     
   12127 C0        -167.3020  -121.3684   247.6458 C0            1 RES     
   12128 C0        -168.2931  -120.5838   248.2305 C0            1 RES     
   12129 S1        -169.3508  -121.4663   249.3453 S1            1 RES     
   12130 H2        -164.0215  -121.6420   250.7061 H2            1 RES     
   12131 H2        -166.5216  -120.9031   247.0662 H2            1 RES     
   12132 N3        -167.0675  -118.6620   254.8176 N3            1 RES     
   12133 C0        -166.9550  -119.5125   253.7859 C0            1 RES     
   12134 C0        -165.7040  -120.1121   253.2884 C0            1 RES     
   12135 C0        -164.5921  -119.6025   254.1180 C0            1 RES     
   12136 N3        -163.2708  -119.9287   253.9547 N3            1 RES     
   12137 S1        -162.5041  -119.0955   255.1767 S1            1 RES     
   12138 N3        -163.7291  -118.2868   255.9351 N3            1 RES     
   12139 C0        -164.8016  -118.6747   255.2320 C0            1 RES     
   12140 C0        -166.0410  -118.1978   255.5820 C0            1 RES     
   12141 H4        -167.8891  -119.7281   253.3168 H4            1 RES     
   12142 C5        -171.3713  -137.8080   236.1193 C5            1 RES     
   12143 C5        -170.8765  -136.8313   237.2237 C5            1 RES     
   12144 C5        -169.7215  -135.8848   236.7590 C5            1 RES     
   12145 C5        -169.3367  -134.6329   237.6880 C5            1 RES     
   12146 C5        -168.5386  -134.8271   239.0487 C5            1 RES     
   12147 C5        -168.3295  -133.6079   240.1653 C5            1 RES     
   12148 C5        -167.2930  -132.3221   240.0867 C5            1 RES     
   12149 C5        -166.7661  -131.2331   241.3581 C5            1 RES     
   12150 C5        -167.3792  -129.7787   242.0053 C5            1 RES     
   12151 C5        -167.0445  -128.6160   243.3395 C5            1 RES     
   12152 C5        -166.0379  -127.1828   243.6671 C5            1 RES     
   12153 C5        -164.8462  -127.5271   242.6018 C5            1 RES     
   12154 C5        -164.0741  -128.9236   242.6528 C5            1 RES     
   12155 C5        -163.3482  -129.3663   241.3092 C5            1 RES     
   12156 C5        -162.4370  -130.6493   241.4073 C5            1 RES     
   12157 C5        -161.4074  -130.6019   242.5574 C5            1 RES     
   12158 C5        -160.5058  -129.3437   242.5505 C5            1 RES     
   12159 C5        -159.0185  -129.5789   242.2625 C5            1 RES     
   12160 C5        -158.7224  -130.2036   240.9035 C5            1 RES     
   12161 C5        -165.8620  -125.7238   244.9867 C5            1 RES     
   12162 C0        -166.0654  -125.0833   246.8252 C0            1 RES     
   12163 C5        -165.7455  -126.3782   247.6153 C5            1 RES     
   12164 C5        -166.3511  -127.7440   247.0295 C5            1 RES     
   12165 C5        -167.7974  -128.0114   247.4805 C5            1 RES     
   12166 C5        -168.8260  -126.8724   247.2930 C5            1 RES     
   12167 C5        -168.9332  -126.2859   245.8684 C5            1 RES     
   12168 C5        -170.1649  -125.4233   245.6261 C5            1 RES     
   12169 C5        -170.2955  -124.2944   246.6490 C5            1 RES     
   12170 C5        -171.6566  -123.6169   246.5273 C5            1 RES     
   12171 C5        -171.8869  -122.7319   247.7447 C5            1 RES     
   12172 C5        -173.2932  -122.1816   247.8097 C5            1 RES     
   12173 C5        -165.3931  -128.9531   247.3032 C5            1 RES     
   12174 C5        -165.4823  -130.3011   246.4898 C5            1 RES     
   12175 C5        -166.5990  -131.3553   246.7214 C5            1 RES     
   12176 C5        -166.7160  -131.7655   248.1950 C5            1 RES     
   12177 C5        -167.5821  -133.0249   248.4232 C5            1 RES     
   12178 C5        -167.9802  -133.1861   249.9070 C5            1 RES     
   12179 C5        -166.8163  -133.2576   250.9176 C5            1 RES     
   12180 C5        -165.9300  -134.5132   250.8184 C5            1 RES     
   12181 C5        -166.6611  -135.8461   251.0742 C5            1 RES     
   12182 C5        -167.3017  -135.9323   252.4624 C5            1 RES     
   12183 H6        -171.7657  -137.2600   235.2332 H6            1 RES     
   12184 H6        -170.5754  -138.5016   235.7735 H6            1 RES     
   12185 H6        -172.2136  -138.4344   236.4997 H6            1 RES     
   12186 H6        -171.7602  -136.2202   237.5024 H6            1 RES     
   12187 H6        -170.5577  -137.4299   238.1008 H6            1 RES     
   12188 H6        -168.8348  -136.5002   236.4851 H6            1 RES     
   12189 H6        -170.1020  -135.4513   235.8033 H6            1 RES     
   12190 H6        -170.2931  -134.1167   237.8998 H6            1 RES     
   12191 H6        -168.7113  -133.9742   237.0526 H6            1 RES     
   12192 H6        -167.5684  -135.3192   238.8017 H6            1 RES     
   12193 H6        -169.1342  -135.6180   239.5646 H6            1 RES     
   12194 H6        -167.9667  -134.1910   241.0407 H6            1 RES     
   12195 H6        -169.3452  -133.2482   240.4038 H6            1 RES     
   12196 H6        -166.3628  -132.8796   239.8126 H6            1 RES     
   12197 H6        -167.5458  -131.7489   239.1712 H6            1 RES     
   12198 H6        -165.7802  -130.9531   240.9323 H6            1 RES     
   12199 H6        -166.5340  -131.9435   242.1803 H6            1 RES     
   12200 H6        -167.5548  -129.1585   241.1022 H6            1 RES     
   12201 H6        -168.3696  -130.1776   242.3051 H6            1 RES     
   12202 H6        -166.9308  -129.2878   244.1957 H6            1 RES     
   12203 H6        -168.0511  -128.1875   243.4331 H6            1 RES     
   12204 H6        -166.5603  -126.4996   242.9604 H6            1 RES     
   12205 H6        -164.1358  -126.6890   242.4549 H6            1 RES     
   12206 H6        -165.3617  -127.6169   241.6091 H6            1 RES     
   12207 H6        -164.7576  -129.7653   242.8809 H6            1 RES     
   12208 H6        -163.3397  -128.8445   243.4693 H6            1 RES     
   12209 H6        -162.7397  -128.5356   240.9144 H6            1 RES     
   12210 H6        -164.0866  -129.5674   240.4983 H6            1 RES     
   12211 H6        -161.8970  -130.8083   240.4425 H6            1 RES     
   12212 H6        -163.0642  -131.5577   241.5624 H6            1 RES     
   12213 H6        -162.0033  -130.6043   243.4911 H6            1 RES     
   12214 H6        -160.7978  -131.5329   242.6176 H6            1 RES     
   12215 H6        -160.8821  -128.5623   241.8697 H6            1 RES     
   12216 H6        -160.5521  -128.9035   243.5685 H6            1 RES     
   12217 H6        -158.5868  -130.2214   243.0583 H6            1 RES     
   12218 H6        -158.5171  -128.5864   242.3077 H6            1 RES     
   12219 H6        -159.1392  -129.5851   240.0820 H6            1 RES     
   12220 H6        -157.6192  -130.2662   240.7772 H6            1 RES     
   12221 H6        -159.1361  -131.2312   240.8471 H6            1 RES     
   12222 H6        -166.4544  -124.9371   244.4661 H6            1 RES     
   12223 H6        -164.8404  -125.3675   244.7363 H6            1 RES     
   12224 H6        -164.6402  -126.4140   247.5664 H6            1 RES     
   12225 H6        -166.0474  -126.2539   248.6738 H6            1 RES     
   12226 H6        -166.3832  -127.7434   245.9561 H6            1 RES     
   12227 H6        -168.1668  -128.8914   246.9250 H6            1 RES     
   12228 H6        -167.7873  -128.2638   248.5577 H6            1 RES     
   12229 H6        -169.8105  -127.2990   247.5769 H6            1 RES     
   12230 H6        -168.5770  -126.0597   248.0072 H6            1 RES     
   12231 H6        -168.1136  -125.6164   245.6969 H6            1 RES     
   12232 H6        -168.9235  -127.0906   245.1159 H6            1 RES     
   12233 H6        -170.1178  -124.9889   244.6004 H6            1 RES     
   12234 H6        -171.0456  -126.0925   245.6887 H6            1 RES     
   12235 H6        -170.2591  -124.7413   247.6603 H6            1 RES     
   12236 H6        -169.4630  -123.5597   246.5567 H6            1 RES     
   12237 H6        -171.7262  -123.0327   245.5831 H6            1 RES     
   12238 H6        -172.4373  -124.4060   246.5299 H6            1 RES     
   12239 H6        -171.1882  -121.8867   247.6864 H6            1 RES     
   12240 H6        -171.7179  -123.3282   248.6729 H6            1 RES     
   12241 H6        -173.4782  -121.5230   246.9383 H6            1 RES     
   12242 H6        -173.4006  -121.5968   248.7483 H6            1 RES     
   12243 H6        -174.0223  -123.0185   247.8237 H6            1 RES     
   12244 H6        -165.3390  -129.1569   248.3875 H6            1 RES     
   12245 H6        -164.3950  -128.5774   246.9824 H6            1 RES     
   12246 H6        -165.4046  -130.1023   245.4042 H6            1 RES     
   12247 H6        -164.5434  -130.8445   246.7331 H6            1 RES     
   12248 H6        -167.5855  -131.0204   246.3384 H6            1 RES     
   12249 H6        -166.3163  -132.2565   246.1250 H6            1 RES     
   12250 H6        -167.1586  -130.9001   248.7289 H6            1 RES     
   12251 H6        -165.7046  -131.9778   248.6020 H6            1 RES     
   12252 H6        -167.0497  -133.9310   248.0521 H6            1 RES     
   12253 H6        -168.5306  -132.9379   247.8496 H6            1 RES     
   12254 H6        -168.6388  -134.0723   250.0259 H6            1 RES     
   12255 H6        -168.5904  -132.2964   250.1734 H6            1 RES     
   12256 H6        -167.2395  -133.2013   251.9411 H6            1 RES     
   12257 H6        -166.1772  -132.3576   250.8059 H6            1 RES     
   12258 H6        -165.4530  -134.5504   249.8165 H6            1 RES     
   12259 H6        -165.1171  -134.4160   251.5720 H6            1 RES     
   12260 H6        -167.4366  -136.0165   250.2996 H6            1 RES     
   12261 H6        -165.9153  -136.6662   250.9904 H6            1 RES     
   12262 H6        -166.5366  -135.7844   253.2542 H6            1 RES     
   12263 H6        -168.1052  -135.1769   252.5812 H6            1 RES     
   12264 H6        -167.7610  -136.9343   252.5965 H6            1 RES     
   12265 C0        -167.4087  -113.6210   257.6209 C0            1 RES     
   12266 C0        -168.8777  -114.6651   257.2047 C0            1 RES     
   12267 C0        -168.8713  -115.7907   258.0186 C0            1 RES     
   12268 S1        -169.9661  -117.0415   257.5842 S1            1 RES     
   12269 C0        -170.7094  -116.4339   256.2301 C0            1 RES     
   12270 C0        -170.0105  -115.0470   256.1427 C0            1 RES     
   12271 C0        -167.5890  -115.9758   258.6992 C0            1 RES     
   12272 C0        -166.8080  -115.0491   257.7816 C0            1 RES     
   12273 C0        -166.2069  -115.7443   256.7779 C0            1 RES     
   12274 C0        -166.2768  -117.1312   256.8846 C0            1 RES     
   12275 S1        -167.0615  -117.7043   258.3666 S1            1 RES     
   12276 H2        -170.2374  -114.4480   255.2690 H2            1 RES     
   12277 H2        -165.8799  -115.2929   255.8555 H2            1 RES     
   12278 N3        -172.5031  -119.9159   255.4475 N3            1 RES     
   12279 C0        -171.7182  -118.9245   255.8964 C0            1 RES     
   12280 C0        -171.7934  -117.5086   255.4941 C0            1 RES     
   12281 C0        -172.8779  -117.3739   254.4991 C0            1 RES     
   12282 N3        -173.2456  -116.2050   253.8848 N3            1 RES     
   12283 S1        -174.5211  -116.6540   252.9118 S1            1 RES     
   12284 N3        -174.6646  -118.2796   253.1704 N3            1 RES     
   12285 C0        -173.6927  -118.5105   254.0632 C0            1 RES     
   12286 C0        -173.5039  -119.7869   254.5335 C0            1 RES     
   12287 H4        -170.9856  -119.2553   256.5985 H4            1 RES     
   12288 C5        -156.5821  -103.9258   270.4662 C5            1 RES     
   12289 C5        -157.6310  -104.6085   269.5430 C5            1 RES     
   12290 C5        -157.4713  -104.2470   268.0298 C5            1 RES     
   12291 C5        -158.2782  -105.1145   266.9459 C5            1 RES     
   12292 C5        -159.8464  -104.9438   266.7514 C5            1 RES     
   12293 C5        -160.7687  -105.9793   265.8273 C5            1 RES     
   12294 C5        -160.8724  -106.0544   264.1789 C5            1 RES     
   12295 C5        -162.0700  -106.8471   263.1702 C5            1 RES     
   12296 C5        -162.2319  -108.4216   262.5340 C5            1 RES     
   12297 C5        -163.4082  -109.4152   261.5995 C5            1 RES     
   12298 C5        -163.8540  -109.7523   259.9077 C5            1 RES     
   12299 C5        -163.3460  -108.3308   259.2794 C5            1 RES     
   12300 C5        -163.8762  -106.9394   259.8557 C5            1 RES     
   12301 C5        -162.9606  -105.6723   259.5651 C5            1 RES     
   12302 C5        -163.5667  -104.2748   259.9721 C5            1 RES     
   12303 C5        -164.9868  -104.0215   259.4204 C5            1 RES     
   12304 C5        -165.1128  -104.1976   257.8877 C5            1 RES     
   12305 C5        -165.4107  -102.9271   257.0831 C5            1 RES     
   12306 C5        -164.3554  -101.8332   257.2032 C5            1 RES     
   12307 C5        -164.9161  -111.0363   258.8473 C5            1 RES     
   12308 C0        -166.4444  -112.2521   258.7148 C0            1 RES     
   12309 C5        -167.4806  -111.5043   259.5924 C5            1 RES     
   12310 C5        -166.9290  -110.8412   260.9457 C5            1 RES     
   12311 C5        -166.8711  -111.8258   262.1263 C5            1 RES     
   12312 C5        -166.1623  -113.1798   261.8928 C5            1 RES     
   12313 C5        -164.7221  -113.1028   261.3408 C5            1 RES     
   12314 C5        -163.9318  -114.4010   261.4403 C5            1 RES     
   12315 C5        -164.6606  -115.5775   260.7900 C5            1 RES     
   12316 C5        -163.9633  -116.8913   261.1276 C5            1 RES     
   12317 C5        -164.8725  -118.0530   260.7503 C5            1 RES     
   12318 C5        -164.3503  -119.3857   261.2363 C5            1 RES     
   12319 C5        -167.7027  -109.5225   261.2881 C5            1 RES     
   12320 C5        -167.1219  -108.4345   262.2707 C5            1 RES     
   12321 C5        -167.0963  -108.6166   263.8129 C5            1 RES     
   12322 C5        -168.4758  -108.9761   264.3798 C5            1 RES     
   12323 C5        -168.5667  -108.8559   265.9178 C5            1 RES     
   12324 C5        -169.8184  -109.5687   266.4758 C5            1 RES     
   12325 C5        -171.1752  -109.0974   265.9118 C5            1 RES     
   12326 C5        -171.5863  -107.6621   266.2897 C5            1 RES     
   12327 C5        -171.7617  -107.4133   267.8009 C5            1 RES     
   12328 C5        -172.8278  -108.3042   268.4448 C5            1 RES     
   12329 H6        -155.5425  -104.2177   270.1924 H6            1 RES     
   12330 H6        -156.6496  -102.8172   270.4440 H6            1 RES     
   12331 H6        -156.7274  -104.2449   271.5262 H6            1 RES     
   12332 H6        -157.4828  -105.7005   269.6757 H6            1 RES     
   12333 H6        -158.6432  -104.3330   269.9023 H6            1 RES     
   12334 H6        -157.6257  -103.1520   267.8990 H6            1 RES     
   12335 H6        -156.3895  -104.4316   267.8257 H6            1 RES     
   12336 H6        -158.0566  -106.1718   267.1890 H6            1 RES     
   12337 H6        -157.8157  -104.8709   265.9684 H6            1 RES     
   12338 H6        -160.0368  -103.8794   266.4768 H6            1 RES     
   12339 H6        -160.2288  -105.0399   267.7957 H6            1 RES     
   12340 H6        -161.7925  -105.6830   266.1466 H6            1 RES     
   12341 H6        -160.5740  -106.9881   266.2304 H6            1 RES     
   12342 H6        -161.0334  -104.9662   263.9762 H6            1 RES     
   12343 H6        -159.8521  -106.2547   263.7920 H6            1 RES     
   12344 H6        -161.9857  -106.1944   262.2766 H6            1 RES     
   12345 H6        -163.0173  -106.5402   263.6631 H6            1 RES     
   12346 H6        -161.2435  -108.6033   262.0637 H6            1 RES     
   12347 H6        -162.2162  -108.9562   263.5055 H6            1 RES     
   12348 H6        -164.3390  -109.2261   262.1428 H6            1 RES     
   12349 H6        -163.0727  -110.4081   261.9268 H6            1 RES     
   12350 H6        -162.9141  -110.2826   259.6347 H6            1 RES     
   12351 H6        -163.3377  -108.3210   258.1710 H6            1 RES     
   12352 H6        -162.2603  -108.2635   259.5549 H6            1 RES     
   12353 H6        -163.9696  -106.9583   260.9596 H6            1 RES     
   12354 H6        -164.8788  -106.7860   259.4272 H6            1 RES     
   12355 H6        -162.6884  -105.6369   258.4970 H6            1 RES     
   12356 H6        -161.9800  -105.7535   260.0896 H6            1 RES     
   12357 H6        -162.8922  -103.4525   259.6308 H6            1 RES     
   12358 H6        -163.6226  -104.1864   261.0819 H6            1 RES     
   12359 H6        -165.6368  -104.7687   259.9163 H6            1 RES     
   12360 H6        -165.3980  -103.0386   259.7472 H6            1 RES     
   12361 H6        -164.2340  -104.6995   257.4499 H6            1 RES     
   12362 H6        -165.9698  -104.8796   257.7070 H6            1 RES     
   12363 H6        -166.3944  -102.5170   257.3939 H6            1 RES     
   12364 H6        -165.4823  -103.2279   256.0141 H6            1 RES     
   12365 H6        -163.3568  -102.2085   256.8979 H6            1 RES     
   12366 H6        -164.6403  -100.9934   256.5320 H6            1 RES     
   12367 H6        -164.3099  -101.4461   258.2417 H6            1 RES     
   12368 H6        -164.1076  -111.7479   258.5629 H6            1 RES     
   12369 H6        -164.9948  -110.4716   257.8943 H6            1 RES     
   12370 H6        -167.8336  -110.7083   258.9090 H6            1 RES     
   12371 H6        -168.3314  -112.1762   259.8199 H6            1 RES     
   12372 H6        -165.9270  -110.4711   260.8343 H6            1 RES     
   12373 H6        -166.3588  -111.3192   262.9633 H6            1 RES     
   12374 H6        -167.9063  -112.0533   262.4437 H6            1 RES     
   12375 H6        -166.1381  -113.6871   262.8797 H6            1 RES     
   12376 H6        -166.7883  -113.7842   261.2034 H6            1 RES     
   12377 H6        -164.7551  -112.9028   260.2880 H6            1 RES     
   12378 H6        -164.1515  -112.3127   261.8546 H6            1 RES     
   12379 H6        -162.9373  -114.2683   260.9543 H6            1 RES     
   12380 H6        -163.7766  -114.6032   262.5184 H6            1 RES     
   12381 H6        -165.6734  -115.6401   261.2306 H6            1 RES     
   12382 H6        -164.7615  -115.4388   259.6892 H6            1 RES     
   12383 H6        -162.9801  -116.9629   260.6121 H6            1 RES     
   12384 H6        -163.8062  -116.9274   262.2259 H6            1 RES     
   12385 H6        -164.9406  -118.0881   259.6548 H6            1 RES     
   12386 H6        -165.8781  -117.9001   261.2097 H6            1 RES     
   12387 H6        -163.3822  -119.6096   260.7466 H6            1 RES     
   12388 H6        -165.0909  -120.1717   260.9748 H6            1 RES     
   12389 H6        -164.2293  -119.3604   262.3394 H6            1 RES     
   12390 H6        -168.7528  -109.7533   261.5414 H6            1 RES     
   12391 H6        -167.7053  -108.9604   260.3267 H6            1 RES     
   12392 H6        -166.1181  -108.1101   261.9371 H6            1 RES     
   12393 H6        -167.7613  -107.5384   262.1152 H6            1 RES     
   12394 H6        -166.3423  -109.3624   264.1403 H6            1 RES     
   12395 H6        -166.7812  -107.6359   264.2451 H6            1 RES     
   12396 H6        -168.6817  -110.0206   264.0691 H6            1 RES     
   12397 H6        -169.2425  -108.2995   263.9463 H6            1 RES     
   12398 H6        -168.5489  -107.7839   266.2222 H6            1 RES     
   12399 H6        -167.6873  -109.3494   266.3862 H6            1 RES     
   12400 H6        -169.8265  -109.5025   267.5843 H6            1 RES     
   12401 H6        -169.7144  -110.6453   266.2208 H6            1 RES     
   12402 H6        -171.9608  -109.7965   266.2642 H6            1 RES     
   12403 H6        -171.1648  -109.1883   264.8062 H6            1 RES     
   12404 H6        -170.8369  -106.9463   265.8913 H6            1 RES     
   12405 H6        -172.5560  -107.4434   265.7897 H6            1 RES     
   12406 H6        -170.7968  -107.5525   268.3302 H6            1 RES     
   12407 H6        -172.0720  -106.3548   267.9390 H6            1 RES     
   12408 H6        -173.8082  -108.1642   267.9414 H6            1 RES     
   12409 H6        -172.5390  -109.3741   268.3970 H6            1 RES     
   12410 H6        -172.9381  -108.0343   269.5162 H6            1 RES     
   12411 C0        -174.2150  -124.3587   252.1738 C0            1 RES     
   12412 C0        -173.4649  -124.5510   253.8535 C0            1 RES     
   12413 C0        -174.3865  -124.1331   254.8053 C0            1 RES     
   12414 S1        -173.7834  -123.9323   256.4015 S1            1 RES     
   12415 C0        -172.1790  -124.3292   256.2475 C0            1 RES     
   12416 C0        -172.1396  -124.6958   254.7363 C0            1 RES     
   12417 C0        -175.4978  -123.3885   254.2118 C0            1 RES     
   12418 C0        -174.7903  -123.1046   252.8967 C0            1 RES     
   12419 C0        -174.1817  -121.8876   252.9194 C0            1 RES     
   12420 C0        -174.4625  -121.0982   254.0320 C0            1 RES     
   12421 S1        -175.6367  -121.8143   255.1495 S1            1 RES     
   12422 H2        -171.1632  -124.9098   254.3184 H2            1 RES     
   12423 H2        -173.3793  -121.6120   252.2548 H2            1 RES     
   12424 N3        -171.3399  -123.0695   259.9438 N3            1 RES     
   12425 C0        -171.8848  -123.3234   258.7442 C0            1 RES     
   12426 C0        -171.2753  -124.1221   257.6660 C0            1 RES     
   12427 C0        -169.9517  -124.5848   258.1332 C0            1 RES     
   12428 N3        -169.0795  -125.3500   257.4033 N3            1 RES     
   12429 S1        -167.7955  -125.5824   258.4390 S1            1 RES     
   12430 N3        -168.2261  -124.7481   259.7986 N3            1 RES     
   12431 C0        -169.4298  -124.2643   259.4638 C0            1 RES     
   12432 C0        -170.1216  -123.5008   260.3719 C0            1 RES     
   12433 H4        -172.8425  -122.8703   258.6147 H4            1 RES     
   12434 C5        -188.4661  -127.7797   239.4687 C5            1 RES     
   12435 C5        -187.3435  -127.7278   240.5437 C5            1 RES     
   12436 C5        -185.9500  -127.2937   239.9818 C5            1 RES     
   12437 C5        -184.7928  -126.9009   241.0234 C5            1 RES     
   12438 C5        -184.0304  -128.0096   241.8695 C5            1 RES     
   12439 C5        -183.0048  -127.6480   243.1322 C5            1 RES     
   12440 C5        -181.4582  -127.0687   243.0537 C5            1 RES     
   12441 C5        -180.2203  -127.0178   244.2967 C5            1 RES     
   12442 C5        -179.8110  -125.9011   245.5197 C5            1 RES     
   12443 C5        -178.6793  -125.7358   246.9110 C5            1 RES     
   12444 C5        -177.0102  -125.2090   247.2447 C5            1 RES     
   12445 C5        -176.3985  -125.5302   245.7627 C5            1 RES     
   12446 C5        -176.5339  -126.9823   245.1129 C5            1 RES     
   12447 C5        -176.4019  -127.0507   243.5298 C5            1 RES     
   12448 C5        -176.3531  -128.4967   242.9030 C5            1 RES     
   12449 C5        -175.3015  -129.4256   243.5482 C5            1 RES     
   12450 C5        -173.8688  -128.8401   243.5749 C5            1 RES     
   12451 C5        -172.8306  -129.5523   242.7001 C5            1 RES     
   12452 C5        -173.1530  -129.5659   241.2099 C5            1 RES     
   12453 C5        -175.8462  -124.7361   248.7686 C5            1 RES     
   12454 C0        -175.3625  -124.9643   250.6516 C0            1 RES     
   12455 C5        -175.6922  -126.4659   250.8508 C5            1 RES     
   12456 C5        -177.0379  -127.0025   250.1604 C5            1 RES     
   12457 C5        -178.2949  -126.7726   251.0168 C5            1 RES     
   12458 C5        -178.5337  -125.3472   251.5663 C5            1 RES     
   12459 C5        -178.5247  -124.2096   250.5219 C5            1 RES     
   12460 C5        -179.0914  -122.8857   251.0178 C5            1 RES     
   12461 C5        -178.4083  -122.4028   252.2977 C5            1 RES     
   12462 C5        -179.1639  -121.2196   252.8937 C5            1 RES     
   12463 C5        -178.6663  -120.9692   254.3108 C5            1 RES     
   12464 C5        -179.4993  -119.9481   255.0510 C5            1 RES     
   12465 C5        -176.8817  -128.4896   249.6925 C5            1 RES     
   12466 C5        -177.8322  -129.1393   248.6149 C5            1 RES     
   12467 C5        -179.2914  -129.5706   248.9258 C5            1 RES     
   12468 C5        -179.3780  -130.4936   250.1481 C5            1 RES     
   12469 C5        -180.7468  -131.1940   250.3029 C5            1 RES     
   12470 C5        -180.9234  -131.8033   251.7113 C5            1 RES     
   12471 C5        -179.8504  -132.8222   252.1489 C5            1 RES     
   12472 C5        -179.8384  -134.1481   251.3655 C5            1 RES     
   12473 C5        -181.1333  -134.9777   251.4731 C5            1 RES     
   12474 C5        -181.4816  -135.3790   252.9092 C5            1 RES     
   12475 H6        -188.6265  -126.7846   238.9944 H6            1 RES     
   12476 H6        -188.2559  -128.5181   238.6658 H6            1 RES     
   12477 H6        -189.4402  -128.0649   239.9338 H6            1 RES     
   12478 H6        -187.6817  -126.9851   241.2961 H6            1 RES     
   12479 H6        -187.2741  -128.7250   241.0235 H6            1 RES     
   12480 H6        -185.6109  -128.0432   239.2313 H6            1 RES     
   12481 H6        -186.1738  -126.3631   239.4075 H6            1 RES     
   12482 H6        -185.2538  -126.1704   241.7161 H6            1 RES     
   12483 H6        -184.0188  -126.3814   240.4236 H6            1 RES     
   12484 H6        -183.5504  -128.7118   241.1478 H6            1 RES     
   12485 H6        -184.8725  -128.5921   242.3143 H6            1 RES     
   12486 H6        -182.8913  -128.6517   243.5986 H6            1 RES     
   12487 H6        -183.5967  -127.0250   243.8246 H6            1 RES     
   12488 H6        -181.0514  -127.7922   242.3038 H6            1 RES     
   12489 H6        -181.4937  -126.1034   242.5082 H6            1 RES     
   12490 H6        -179.3282  -127.0458   243.6372 H6            1 RES     
   12491 H6        -180.2926  -128.0394   244.7275 H6            1 RES     
   12492 H6        -179.7556  -124.9389   244.9702 H6            1 RES     
   12493 H6        -180.7930  -125.9079   246.0352 H6            1 RES     
   12494 H6        -178.8215  -126.6902   247.4271 H6            1 RES     
   12495 H6        -179.2488  -124.9989   247.4925 H6            1 RES     
   12496 H6        -177.1715  -124.1318   247.0154 H6            1 RES     
   12497 H6        -175.3773  -125.1255   245.6143 H6            1 RES     
   12498 H6        -177.0286  -124.9313   245.0530 H6            1 RES     
   12499 H6        -177.5221  -127.4377   245.3218 H6            1 RES     
   12500 H6        -175.7593  -127.6078   245.5829 H6            1 RES     
   12501 H6        -175.5078  -126.4965   243.1986 H6            1 RES     
   12502 H6        -177.2465  -126.5209   243.0306 H6            1 RES     
   12503 H6        -176.1550  -128.4303   241.8058 H6            1 RES     
   12504 H6        -177.3440  -128.9965   243.0073 H6            1 RES     
   12505 H6        -175.6398  -129.5793   244.5917 H6            1 RES     
   12506 H6        -175.3100  -130.4472   243.1028 H6            1 RES     
   12507 H6        -173.8522  -127.7623   243.3429 H6            1 RES     
   12508 H6        -173.4994  -128.9291   244.6180 H6            1 RES     
   12509 H6        -172.7066  -130.5974   243.0534 H6            1 RES     
   12510 H6        -171.8638  -129.0204   242.8437 H6            1 RES     
   12511 H6        -173.2824  -128.5347   240.8214 H6            1 RES     
   12512 H6        -172.3070  -130.0458   240.6706 H6            1 RES     
   12513 H6        -174.0696  -130.1591   241.0135 H6            1 RES     
   12514 H6        -175.9774  -123.6300   248.7596 H6            1 RES     
   12515 H6        -174.8545  -124.7983   248.2727 H6            1 RES     
   12516 H6        -174.8172  -126.9602   250.3868 H6            1 RES     
   12517 H6        -175.7002  -126.7061   251.9322 H6            1 RES     
   12518 H6        -177.2358  -126.5108   249.2264 H6            1 RES     
   12519 H6        -179.1735  -127.0484   250.4073 H6            1 RES     
   12520 H6        -178.2539  -127.4525   251.8887 H6            1 RES     
   12521 H6        -179.5287  -125.3711   252.0575 H6            1 RES     
   12522 H6        -177.7654  -125.1413   252.3408 H6            1 RES     
   12523 H6        -177.5117  -123.9736   250.2620 H6            1 RES     
   12524 H6        -179.0835  -124.5066   249.6200 H6            1 RES     
   12525 H6        -178.9767  -122.1120   250.2233 H6            1 RES     
   12526 H6        -180.1715  -123.0461   251.2045 H6            1 RES     
   12527 H6        -178.4641  -123.2167   253.0449 H6            1 RES     
   12528 H6        -177.3359  -122.1569   252.1218 H6            1 RES     
   12529 H6        -179.0483  -120.3139   252.2582 H6            1 RES     
   12530 H6        -180.2385  -121.4910   252.9554 H6            1 RES     
   12531 H6        -177.6364  -120.5932   254.2469 H6            1 RES     
   12532 H6        -178.7099  -121.9212   254.8919 H6            1 RES     
   12533 H6        -179.4251  -118.9658   254.5442 H6            1 RES     
   12534 H6        -179.1124  -119.8621   256.0891 H6            1 RES     
   12535 H6        -180.5564  -120.2846   255.0897 H6            1 RES     
   12536 H6        -176.7767  -129.1542   250.5686 H6            1 RES     
   12537 H6        -175.9097  -128.4950   249.1490 H6            1 RES     
   12538 H6        -177.8326  -128.5361   247.6874 H6            1 RES     
   12539 H6        -177.3275  -130.0856   248.3220 H6            1 RES     
   12540 H6        -179.9729  -128.7037   249.0524 H6            1 RES     
   12541 H6        -179.6557  -130.1327   248.0319 H6            1 RES     
   12542 H6        -179.1742  -129.8609   251.0359 H6            1 RES     
   12543 H6        -178.6044  -131.2866   250.0693 H6            1 RES     
   12544 H6        -180.8738  -131.9704   249.5134 H6            1 RES     
   12545 H6        -181.5653  -130.4523   250.1750 H6            1 RES     
   12546 H6        -181.9334  -132.2559   251.8018 H6            1 RES     
   12547 H6        -180.8859  -130.9587   252.4327 H6            1 RES     
   12548 H6        -180.0007  -133.0463   253.2246 H6            1 RES     
   12549 H6        -178.8475  -132.3534   252.0761 H6            1 RES     
   12550 H6        -179.6301  -133.9425   250.2945 H6            1 RES     
   12551 H6        -178.9997  -134.7663   251.7562 H6            1 RES     
   12552 H6        -181.9854  -134.4238   251.0286 H6            1 RES     
   12553 H6        -180.9921  -135.9090   250.8826 H6            1 RES     
   12554 H6        -180.6478  -135.9535   253.3661 H6            1 RES     
   12555 H6        -181.7001  -134.4882   253.5330 H6            1 RES     
   12556 H6        -182.3906  -136.0166   252.9052 H6            1 RES     
   12557 C0        -168.3748  -120.2359   264.0139 C0            1 RES     
   12558 C0        -170.2201  -120.2158   263.8875 C0            1 RES     
   12559 C0        -170.7082  -121.4577   264.2736 C0            1 RES     
   12560 S1        -172.3653  -121.7559   263.9318 S1            1 RES     
   12561 C0        -172.8528  -120.3523   263.1920 C0            1 RES     
   12562 C0        -171.5272  -119.5412   263.2607 C0            1 RES     
   12563 C0        -169.6544  -122.4707   264.3432 C0            1 RES     
   12564 C0        -168.6500  -121.6857   263.5153 C0            1 RES     
   12565 C0        -168.7054  -122.0468   262.2044 C0            1 RES     
   12566 C0        -169.5141  -123.1443   261.9191 C0            1 RES     
   12567 S1        -170.2349  -123.9031   263.3492 S1            1 RES     
   12568 H2        -171.5206  -118.5858   262.7499 H2            1 RES     
   12569 H2        -168.3361  -121.4295   261.4019 H2            1 RES     
   12570 N3        -176.3733  -121.9259   262.1511 N3            1 RES     
   12571 C0        -175.1107  -121.6994   262.5448 C0            1 RES     
   12572 C0        -174.4519  -120.3840   262.6319 C0            1 RES     
   12573 C0        -175.4225  -119.3578   262.1971 C0            1 RES     
   12574 N3        -175.1733  -118.0113   262.1337 N3            1 RES     
   12575 S1        -176.6200  -117.3655   261.6186 S1            1 RES     
   12576 N3        -177.5968  -118.6840   261.4249 N3            1 RES     
   12577 C0        -176.7878  -119.6900   261.7834 C0            1 RES     
   12578 C0        -177.2657  -120.9772   261.7548 C0            1 RES     
   12579 H4        -174.5831  -122.5929   262.7950 H4            1 RES     
   12580 C5        -152.0984  -123.1707   274.1471 C5            1 RES     
   12581 C5        -153.4816  -122.8291   273.5235 C5            1 RES     
   12582 C5        -153.3935  -121.9454   272.2361 C5            1 RES     
   12583 C5        -154.7071  -121.7834   271.3271 C5            1 RES     
   12584 C5        -155.9245  -120.8713   271.7878 C5            1 RES     
   12585 C5        -157.4000  -120.8603   271.0134 C5            1 RES     
   12586 C5        -157.7906  -120.1404   269.5771 C5            1 RES     
   12587 C5        -159.3699  -119.7809   268.9013 C5            1 RES     
   12588 C5        -160.4769  -120.6538   267.9407 C5            1 RES     
   12589 C5        -162.1382  -120.4932   267.2636 C5            1 RES     
   12590 C5        -162.9605  -119.8072   265.8396 C5            1 RES     
   12591 C5        -161.8584  -118.6444   265.5126 C5            1 RES     
   12592 C5        -161.4278  -117.5820   266.6239 C5            1 RES     
   12593 C5        -160.0242  -116.8697   266.3980 C5            1 RES     
   12594 C5        -159.6793  -115.6937   267.3901 C5            1 RES     
   12595 C5        -160.7872  -114.6239   267.5051 C5            1 RES     
   12596 C5        -161.2336  -114.0243   266.1497 C5            1 RES     
   12597 C5        -160.9017  -112.5449   265.9224 C5            1 RES     
   12598 C5        -159.4142  -112.2118   265.9560 C5            1 RES     
   12599 C5        -164.7096  -119.8675   264.9243 C5            1 RES     
   12600 C0        -166.6530  -120.0811   265.0199 C0            1 RES     
   12601 C5        -166.9441  -119.4307   266.3966 C5            1 RES     
   12602 C5        -165.9090  -119.7591   267.5782 C5            1 RES     
   12603 C5        -166.2181  -121.0767   268.3096 C5            1 RES     
   12604 C5        -166.4272  -122.3413   267.4449 C5            1 RES     
   12605 C5        -165.2968  -122.6719   266.4461 C5            1 RES     
   12606 C5        -165.3550  -124.0770   265.8610 C5            1 RES     
   12607 C5        -166.7066  -124.3830   265.2148 C5            1 RES     
   12608 C5        -166.8111  -125.8650   264.8696 C5            1 RES     
   12609 C5        -168.2581  -126.2011   264.5353 C5            1 RES     
   12610 C5        -168.4924  -127.6863   264.3803 C5            1 RES     
   12611 C5        -165.7550  -118.5418   268.5525 C5            1 RES     
   12612 C5        -164.5200  -118.3871   269.5208 C5            1 RES     
   12613 C5        -164.3527  -119.2257   270.8172 C5            1 RES     
   12614 C5        -165.5877  -119.1486   271.7241 C5            1 RES     
   12615 C5        -165.3487  -119.6984   273.1485 C5            1 RES     
   12616 C5        -166.6766  -119.9491   273.8968 C5            1 RES     
   12617 C5        -167.6139  -118.7319   274.0413 C5            1 RES     
   12618 C5        -167.0935  -117.5996   274.9463 C5            1 RES     
   12619 C5        -166.8566  -118.0000   276.4160 C5            1 RES     
   12620 C5        -168.1178  -118.5096   277.1191 C5            1 RES     
   12621 H6        -151.4551  -123.7356   273.4345 H6            1 RES     
   12622 H6        -151.5427  -122.2670   274.4765 H6            1 RES     
   12623 H6        -152.2240  -123.8263   275.0421 H6            1 RES     
   12624 H6        -153.9446  -123.8046   273.2664 H6            1 RES     
   12625 H6        -154.0979  -122.3272   274.2965 H6            1 RES     
   12626 H6        -152.9335  -120.9658   272.4982 H6            1 RES     
   12627 H6        -152.6449  -122.4764   271.6007 H6            1 RES     
   12628 H6        -155.0732  -122.8133   271.1501 H6            1 RES     
   12629 H6        -154.3511  -121.3633   270.3650 H6            1 RES     
   12630 H6        -155.5341  -119.8356   271.9276 H6            1 RES     
   12631 H6        -156.1226  -121.2414   272.8222 H6            1 RES     
   12632 H6        -158.0207  -120.3191   271.7616 H6            1 RES     
   12633 H6        -157.7354  -121.9116   271.0017 H6            1 RES     
   12634 H6        -157.3514  -119.1311   269.7763 H6            1 RES     
   12635 H6        -157.1304  -120.5751   268.7988 H6            1 RES     
   12636 H6        -159.0826  -118.9123   268.2731 H6            1 RES     
   12637 H6        -159.8944  -119.3424   269.7772 H6            1 RES     
   12638 H6        -159.8457  -121.0228   267.1061 H6            1 RES     
   12639 H6        -160.6045  -121.5091   268.6349 H6            1 RES     
   12640 H6        -162.7064  -120.1762   268.1434 H6            1 RES     
   12641 H6        -162.3621  -121.5607   267.1374 H6            1 RES     
   12642 H6        -162.5306  -120.5142   265.0950 H6            1 RES     
   12643 H6        -162.0239  -118.1478   264.5355 H6            1 RES     
   12644 H6        -160.8902  -119.1939   265.3719 H6            1 RES     
   12645 H6        -161.3374  -118.0461   267.6259 H6            1 RES     
   12646 H6        -162.2303  -116.8292   266.6634 H6            1 RES     
   12647 H6        -159.9536  -116.4876   265.3659 H6            1 RES     
   12648 H6        -159.1843  -117.5992   266.4724 H6            1 RES     
   12649 H6        -158.7274  -115.1991   267.0790 H6            1 RES     
   12650 H6        -159.4980  -116.0934   268.4148 H6            1 RES     
   12651 H6        -161.6528  -115.1396   267.9654 H6            1 RES     
   12652 H6        -160.5259  -113.8215   268.2331 H6            1 RES     
   12653 H6        -160.8643  -114.6090   265.2909 H6            1 RES     
   12654 H6        -162.3405  -114.0969   266.1094 H6            1 RES     
   12655 H6        -161.4280  -111.9290   266.6815 H6            1 RES     
   12656 H6        -161.2983  -112.2726   264.9190 H6            1 RES     
   12657 H6        -158.8556  -112.8097   265.2065 H6            1 RES     
   12658 H6        -159.2890  -111.1332   265.7156 H6            1 RES     
   12659 H6        -158.9959  -112.3918   266.9674 H6            1 RES     
   12660 H6        -164.4894  -120.6527   264.1655 H6            1 RES     
   12661 H6        -164.6137  -118.9690   264.2786 H6            1 RES     
   12662 H6        -166.9008  -118.3507   266.1580 H6            1 RES     
   12663 H6        -167.9749  -119.6797   266.7167 H6            1 RES     
   12664 H6        -164.9034  -119.8636   267.2161 H6            1 RES     
   12665 H6        -165.3846  -121.2801   269.0050 H6            1 RES     
   12666 H6        -167.1388  -120.9379   268.9073 H6            1 RES     
   12667 H6        -166.5303  -123.1859   268.1575 H6            1 RES     
   12668 H6        -167.3841  -122.2294   266.8932 H6            1 RES     
   12669 H6        -165.3817  -122.0336   265.5889 H6            1 RES     
   12670 H6        -164.3104  -122.5365   266.9179 H6            1 RES     
   12671 H6        -164.5471  -124.1968   265.1022 H6            1 RES     
   12672 H6        -165.1674  -124.7823   266.6945 H6            1 RES     
   12673 H6        -167.4978  -124.1802   265.9610 H6            1 RES     
   12674 H6        -166.8886  -123.7411   264.3226 H6            1 RES     
   12675 H6        -166.1305  -126.1258   264.0292 H6            1 RES     
   12676 H6        -166.5267  -126.4506   265.7686 H6            1 RES     
   12677 H6        -168.5090  -125.7114   263.5848 H6            1 RES     
   12678 H6        -168.9211  -125.8420   265.3582 H6            1 RES     
   12679 H6        -167.9044  -128.0708   263.5238 H6            1 RES     
   12680 H6        -169.5749  -127.8556   264.1952 H6            1 RES     
   12681 H6        -168.2027  -128.2103   265.3149 H6            1 RES     
   12682 H6        -166.7000  -118.3704   269.0983 H6            1 RES     
   12683 H6        -165.5998  -117.6753   267.8704 H6            1 RES     
   12684 H6        -163.5739  -118.4293   268.9488 H6            1 RES     
   12685 H6        -164.5705  -117.3372   269.8830 H6            1 RES     
   12686 H6        -164.0978  -120.2855   270.6079 H6            1 RES     
   12687 H6        -163.4825  -118.7927   271.3677 H6            1 RES     
   12688 H6        -166.3847  -119.7336   271.2216 H6            1 RES     
   12689 H6        -165.9084  -118.0900   271.8244 H6            1 RES     
   12690 H6        -164.6912  -119.0060   273.7234 H6            1 RES     
   12691 H6        -164.8290  -120.6796   273.0905 H6            1 RES     
   12692 H6        -166.4687  -120.3866   274.8961 H6            1 RES     
   12693 H6        -167.2293  -120.7207   273.3188 H6            1 RES     
   12694 H6        -168.5865  -119.0863   274.4393 H6            1 RES     
   12695 H6        -167.8332  -118.3159   273.0364 H6            1 RES     
   12696 H6        -166.1486  -117.1956   274.5260 H6            1 RES     
   12697 H6        -167.8445  -116.7787   274.9297 H6            1 RES     
   12698 H6        -166.0608  -118.7698   276.4836 H6            1 RES     
   12699 H6        -166.5011  -117.0992   276.9622 H6            1 RES     
   12700 H6        -168.9217  -117.7437   277.0804 H6            1 RES     
   12701 H6        -168.4826  -119.4497   276.6572 H6            1 RES     
   12702 H6        -167.8864  -118.7267   278.1831 H6            1 RES     
   12703 C0        -180.7590  -123.1774   258.6035 C0            1 RES     
   12704 C0        -179.9837  -124.4051   259.7492 C0            1 RES     
   12705 C0        -180.3520  -124.0954   261.0523 C0            1 RES     
   12706 S1        -179.4923  -124.9147   262.2938 S1            1 RES     
   12707 C0        -178.4266  -125.8642   261.4464 C0            1 RES     
   12708 C0        -178.8399  -125.4956   259.9927 C0            1 RES     
   12709 C0        -180.9422  -122.7605   261.1594 C0            1 RES     
   12710 C0        -180.4178  -122.2672   259.8207 C0            1 RES     
   12711 C0        -179.2425  -121.5977   259.9702 C0            1 RES     
   12712 C0        -178.8559  -121.3529   261.2857 C0            1 RES     
   12713 S1        -180.0327  -121.8890   262.4974 S1            1 RES     
   12714 H2        -178.2282  -125.9079   259.1993 H2            1 RES     
   12715 H2        -178.5411  -121.4418   259.1670 H2            1 RES     
   12716 N3        -176.4502  -126.8958   264.7604 N3            1 RES     
   12717 C0        -177.2284  -126.3199   263.8314 C0            1 RES     
   12718 C0        -177.3462  -126.7324   262.4214 C0            1 RES     
   12719 C0        -176.4467  -127.8852   262.2065 C0            1 RES     
   12720 N3        -176.2755  -128.5424   261.0158 N3            1 RES     
   12721 S1        -175.1896  -129.7509   261.3838 S1            1 RES     
   12722 N3        -174.8608  -129.5148   262.9858 N3            1 RES     
   12723 C0        -175.6294  -128.4573   263.2790 C0            1 RES     
   12724 C0        -175.6256  -127.9603   264.5593 C0            1 RES     
   12725 H4        -177.7802  -125.4862   264.2052 H4            1 RES     
   12726 C5        -196.3320  -113.9026   251.6987 C5            1 RES     
   12727 C5        -195.2140  -114.8358   252.2444 C5            1 RES     
   12728 C5        -193.9254  -114.8632   251.3585 C5            1 RES     
   12729 C5        -192.5955  -115.5311   251.9616 C5            1 RES     
   12730 C5        -192.4518  -117.1079   252.1003 C5            1 RES     
   12731 C5        -191.2111  -117.8403   252.9378 C5            1 RES     
   12732 C5        -189.6395  -118.0370   252.4636 C5            1 RES     
   12733 C5        -188.4009  -119.0965   253.1143 C5            1 RES     
   12734 C5        -187.2516  -118.9505   254.3665 C5            1 RES     
   12735 C5        -186.0125  -119.9399   255.2207 C5            1 RES     
   12736 C5        -184.3037  -120.4148   255.0488 C5            1 RES     
   12737 C5        -184.2199  -120.2766   253.4217 C5            1 RES     
   12738 C5        -185.2396  -121.0597   252.4751 C5            1 RES     
   12739 C5        -185.4235  -120.4677   251.0109 C5            1 RES     
   12740 C5        -186.2857  -121.3376   250.0179 C5            1 RES     
   12741 C5        -185.8383  -122.8128   249.9246 C5            1 RES     
   12742 C5        -184.3393  -123.0011   249.5872 C5            1 RES     
   12743 C5        -184.0265  -123.6259   248.2225 C5            1 RES     
   12744 C5        -184.5364  -122.8317   247.0249 C5            1 RES     
   12745 C5        -182.8466  -121.2377   256.0979 C5            1 RES     
   12746 C0        -182.2760  -122.4660   257.5111 C0            1 RES     
   12747 C5        -183.3457  -123.5792   257.3704 C5            1 RES     
   12748 C5        -184.8529  -123.0962   257.1048 C5            1 RES     
   12749 C5        -185.6148  -122.7425   258.3936 C5            1 RES     
   12750 C5        -184.9316  -121.7704   259.3830 C5            1 RES     
   12751 C5        -184.4612  -120.4236   258.7916 C5            1 RES     
   12752 C5        -184.1107  -119.3619   259.8258 C5            1 RES     
   12753 C5        -183.0798  -119.8562   260.8412 C5            1 RES     
   12754 C5        -182.9455  -118.8652   261.9929 C5            1 RES     
   12755 C5        -182.1731  -119.5197   263.1301 C5            1 RES     
   12756 C5        -182.1687  -118.6849   264.3902 C5            1 RES     
   12757 C5        -185.6247  -124.1163   256.2000 C5            1 RES     
   12758 C5        -186.9339  -123.7239   255.4135 C5            1 RES     
   12759 C5        -188.3148  -123.5537   256.1033 C5            1 RES     
   12760 C5        -188.7012  -124.7781   256.9431 C5            1 RES     
   12761 C5        -190.1825  -124.7881   257.3831 C5            1 RES     
   12762 C5        -190.4386  -125.8110   258.5119 C5            1 RES     
   12763 C5        -190.0568  -127.2735   258.2014 C5            1 RES     
   12764 C5        -190.9076  -127.9640   257.1192 C5            1 RES     
   12765 C5        -192.4078  -128.0864   257.4524 C5            1 RES     
   12766 C5        -192.6844  -128.8836   258.7302 C5            1 RES     
   12767 H6        -195.9876  -112.8454   251.6310 H6            1 RES     
   12768 H6        -196.6984  -114.2141   250.6973 H6            1 RES     
   12769 H6        -197.2111  -113.9015   252.3870 H6            1 RES     
   12770 H6        -194.9580  -114.4420   253.2501 H6            1 RES     
   12771 H6        -195.6332  -115.8569   252.3501 H6            1 RES     
   12772 H6        -194.1843  -115.2635   250.3522 H6            1 RES     
   12773 H6        -193.6845  -113.7838   251.2074 H6            1 RES     
   12774 H6        -192.4561  -115.0660   252.9567 H6            1 RES     
   12775 H6        -191.7716  -115.2015   251.2973 H6            1 RES     
   12776 H6        -192.5646  -117.5464   251.0808 H6            1 RES     
   12777 H6        -193.3911  -117.3877   252.6347 H6            1 RES     
   12778 H6        -191.6000  -118.8800   253.0135 H6            1 RES     
   12779 H6        -191.2382  -117.4011   253.9500 H6            1 RES     
   12780 H6        -189.8285  -118.4472   251.4402 H6            1 RES     
   12781 H6        -189.2209  -117.0265   252.2781 H6            1 RES     
   12782 H6        -187.7936  -119.2192   252.1936 H6            1 RES     
   12783 H6        -188.9572  -120.0522   253.2224 H6            1 RES     
   12784 H6        -186.7610  -117.9808   254.1427 H6            1 RES     
   12785 H6        -187.9746  -118.7513   255.1834 H6            1 RES     
   12786 H6        -186.5749  -120.8503   255.4495 H6            1 RES     
   12787 H6        -185.9760  -119.3725   256.1599 H6            1 RES     
   12788 H6        -183.8752  -119.4021   255.2215 H6            1 RES     
   12789 H6        -183.1853  -120.3462   253.0300 H6            1 RES     
   12790 H6        -184.5164  -119.2161   253.2052 H6            1 RES     
   12791 H6        -186.2656  -121.0711   252.8932 H6            1 RES     
   12792 H6        -184.8783  -122.0982   252.4190 H6            1 RES     
   12793 H6        -184.4392  -120.2835   250.5489 H6            1 RES     
   12794 H6        -185.8997  -119.4599   251.0393 H6            1 RES     
   12795 H6        -186.2631  -120.8857   248.9967 H6            1 RES     
   12796 H6        -187.3553  -121.3358   250.3317 H6            1 RES     
   12797 H6        -186.0323  -123.2469   250.9250 H6            1 RES     
   12798 H6        -186.4829  -123.4073   249.2367 H6            1 RES     
   12799 H6        -183.7656  -122.0654   249.6914 H6            1 RES     
   12800 H6        -183.9197  -123.6972   250.3433 H6            1 RES     
   12801 H6        -184.4478  -124.6522   248.1825 H6            1 RES     
   12802 H6        -182.9190  -123.7021   248.1455 H6            1 RES     
   12803 H6        -184.1327  -121.7982   247.0319 H6            1 RES     
   12804 H6        -184.1978  -123.3397   246.0953 H6            1 RES     
   12805 H6        -185.6452  -122.8020   247.0189 H6            1 RES     
   12806 H6        -182.3421  -120.3136   256.4619 H6            1 RES     
   12807 H6        -182.1506  -121.5037   255.2743 H6            1 RES     
   12808 H6        -182.9795  -124.1447   256.4921 H6            1 RES     
   12809 H6        -183.3119  -124.2435   258.2562 H6            1 RES     
   12810 H6        -184.8918  -122.2105   256.4989 H6            1 RES     
   12811 H6        -186.5830  -122.2985   258.1021 H6            1 RES     
   12812 H6        -185.8183  -123.6781   258.9481 H6            1 RES     
   12813 H6        -185.6787  -121.5679   260.1784 H6            1 RES     
   12814 H6        -184.0657  -122.2935   259.8405 H6            1 RES     
   12815 H6        -183.5447  -120.5716   258.2553 H6            1 RES     
   12816 H6        -185.2268  -120.0075   258.1175 H6            1 RES     
   12817 H6        -183.7155  -118.4565   259.3090 H6            1 RES     
   12818 H6        -185.0518  -119.0929   260.3447 H6            1 RES     
   12819 H6        -183.4567  -120.7979   261.2827 H6            1 RES     
   12820 H6        -182.0959  -120.0599   260.3599 H6            1 RES     
   12821 H6        -182.4510  -117.9279   261.6544 H6            1 RES     
   12822 H6        -183.9637  -118.6295   262.3670 H6            1 RES     
   12823 H6        -181.1337  -119.6530   262.8013 H6            1 RES     
   12824 H6        -182.6431  -120.5006   263.3804 H6            1 RES     
   12825 H6        -181.6449  -117.7269   264.2030 H6            1 RES     
   12826 H6        -181.6386  -119.2501   265.1865 H6            1 RES     
   12827 H6        -183.2124  -118.4975   264.7185 H6            1 RES     
   12828 H6        -185.7668  -125.0700   256.7389 H6            1 RES     
   12829 H6        -184.9210  -124.3082   255.3585 H6            1 RES     
   12830 H6        -186.7486  -122.8414   254.7724 H6            1 RES     
   12831 H6        -187.0932  -124.5541   254.6914 H6            1 RES     
   12832 H6        -188.3707  -122.6334   256.7213 H6            1 RES     
   12833 H6        -189.0673  -123.4336   255.2865 H6            1 RES     
   12834 H6        -188.0417  -124.7695   257.8346 H6            1 RES     
   12835 H6        -188.5216  -125.7027   256.3546 H6            1 RES     
   12836 H6        -190.8432  -124.9863   256.5076 H6            1 RES     
   12837 H6        -190.4604  -123.7918   257.7910 H6            1 RES     
   12838 H6        -191.4999  -125.7579   258.8345 H6            1 RES     
   12839 H6        -189.8242  -125.4900   259.3806 H6            1 RES     
   12840 H6        -190.1314  -127.8599   259.1398 H6            1 RES     
   12841 H6        -188.9896  -127.3188   257.9018 H6            1 RES     
   12842 H6        -190.7953  -127.4197   256.1580 H6            1 RES     
   12843 H6        -190.5027  -128.9899   256.9715 H6            1 RES     
   12844 H6        -192.8679  -127.0808   257.5389 H6            1 RES     
   12845 H6        -192.9034  -128.6122   256.6075 H6            1 RES     
   12846 H6        -192.2485  -129.9028   258.6555 H6            1 RES     
   12847 H6        -192.2690  -128.3702   259.6214 H6            1 RES     
   12848 H6        -193.7809  -128.9773   258.8781 H6            1 RES     
   12849 C0        -171.8052  -127.8060   268.0744 C0            1 RES     
   12850 C0        -173.3214  -126.9192   268.6541 C0            1 RES     
   12851 C0        -174.3465  -127.8431   268.8128 C0            1 RES     
   12852 S1        -175.9200  -127.1917   269.0398 S1            1 RES     
   12853 C0        -175.6588  -125.5536   268.9789 C0            1 RES     
   12854 C0        -174.1155  -125.5375   268.7841 C0            1 RES     
   12855 C0        -174.0362  -129.1290   268.1868 C0            1 RES     
   12856 C0        -172.9135  -128.5928   267.3135 C0            1 RES     
   12857 C0        -173.3691  -128.2671   266.0732 C0            1 RES     
   12858 C0        -174.6837  -128.6384   265.8015 C0            1 RES     
   12859 S1        -175.4637  -129.5470   267.1078 S1            1 RES     
   12860 H2        -173.6625  -124.5689   268.6107 H2            1 RES     
   12861 H2        -172.8540  -127.5924   265.4092 H2            1 RES     
   12862 N3        -179.5732  -124.7626   268.9090 N3            1 RES     
   12863 C0        -178.3534  -125.3187   268.8534 C0            1 RES     
   12864 C0        -177.0722  -124.6232   269.0698 C0            1 RES     
   12865 C0        -177.3658  -123.2015   269.3468 C0            1 RES     
   12866 N3        -176.4262  -122.2340   269.5918 N3            1 RES     
   12867 S1        -177.3324  -120.8628   269.8638 S1            1 RES     
   12868 N3        -178.8920  -121.3729   269.6706 N3            1 RES     
   12869 C0        -178.7314  -122.6735   269.3922 C0            1 RES     
   12870 C0        -179.8398  -123.4529   269.1684 C0            1 RES     
   12871 H4        -178.3776  -126.3593   268.6169 H4            1 RES     
   12872 C5        -158.5135  -141.7856   270.1035 C5            1 RES     
   12873 C5        -159.5538  -140.6314   270.1673 C5            1 RES     
   12874 C5        -159.1984  -139.4094   269.2581 C5            1 RES     
   12875 C5        -160.3274  -138.2989   268.9921 C5            1 RES     
   12876 C5        -160.7421  -137.2552   270.1167 C5            1 RES     
   12877 C5        -162.0653  -136.2507   269.9853 C5            1 RES     
   12878 C5        -162.2156  -134.8787   269.0749 C5            1 RES     
   12879 C5        -163.4146  -133.6007   269.1707 C5            1 RES     
   12880 C5        -164.9566  -133.3651   268.4802 C5            1 RES     
   12881 C5        -166.3330  -132.2054   268.5473 C5            1 RES     
   12882 C5        -166.8527  -130.6746   267.7980 C5            1 RES     
   12883 C5        -165.3605  -130.1098   267.4404 C5            1 RES     
   12884 C5        -164.2417  -129.9659   268.5703 C5            1 RES     
   12885 C5        -162.7369  -129.9303   268.0581 C5            1 RES     
   12886 C5        -161.6442  -129.6070   269.1479 C5            1 RES     
   12887 C5        -161.9376  -128.3351   269.9733 C5            1 RES     
   12888 C5        -162.1872  -127.0682   269.1196 C5            1 RES     
   12889 C5        -161.1326  -125.9607   269.2284 C5            1 RES     
   12890 C5        -159.7276  -126.3731   268.8029 C5            1 RES     
   12891 C5        -168.4615  -129.5422   267.6233 C5            1 RES     
   12892 C0        -170.1518  -128.8929   268.3668 C0            1 RES     
   12893 C5        -169.8082  -128.8694   269.8783 C5            1 RES     
   12894 C5        -168.9553  -130.1076   270.4393 C5            1 RES     
   12895 C5        -169.8209  -131.3230   270.8137 C5            1 RES     
   12896 C5        -170.8312  -131.8320   269.7599 C5            1 RES     
   12897 C5        -170.2515  -132.1450   268.3632 C5            1 RES     
   12898 C5        -171.1716  -132.9543   267.4587 C5            1 RES     
   12899 C5        -172.5488  -132.3087   267.3016 C5            1 RES     
   12900 C5        -173.5110  -133.2640   266.6032 C5            1 RES     
   12901 C5        -174.9327  -132.7383   266.7477 C5            1 RES     
   12902 C5        -175.9722  -133.7234   266.2642 C5            1 RES     
   12903 C5        -167.9986  -129.6599   271.5965 C5            1 RES     
   12904 C5        -166.7489  -130.5152   272.0365 C5            1 RES     
   12905 C5        -166.8692  -131.8188   272.8719 C5            1 RES     
   12906 C5        -167.6897  -131.6164   274.1522 C5            1 RES     
   12907 C5        -167.5708  -132.7835   275.1582 C5            1 RES     
   12908 C5        -168.6742  -132.7250   276.2376 C5            1 RES     
   12909 C5        -168.7420  -131.4266   277.0687 C5            1 RES     
   12910 C5        -167.5442  -131.1763   278.0039 C5            1 RES     
   12911 C5        -167.3369  -132.2461   279.0942 C5            1 RES     
   12912 C5        -168.5367  -132.3988   280.0333 C5            1 RES     
   12913 H6        -158.4154  -142.1933   269.0714 H6            1 RES     
   12914 H6        -157.5058  -141.4731   270.4514 H6            1 RES     
   12915 H6        -158.8359  -142.6389   270.7473 H6            1 RES     
   12916 H6        -160.5139  -141.0728   269.8276 H6            1 RES     
   12917 H6        -159.6550  -140.3115   271.2241 H6            1 RES     
   12918 H6        -158.2378  -138.9655   269.6045 H6            1 RES     
   12919 H6        -158.9833  -139.8713   268.2650 H6            1 RES     
   12920 H6        -161.2256  -138.8612   268.6712 H6            1 RES     
   12921 H6        -159.9580  -137.7011   268.1348 H6            1 RES     
   12922 H6        -159.8268  -136.6825   270.3975 H6            1 RES     
   12923 H6        -160.9432  -137.9159   270.9938 H6            1 RES     
   12924 H6        -162.1523  -135.8873   271.0333 H6            1 RES     
   12925 H6        -162.9239  -136.9167   269.7924 H6            1 RES     
   12926 H6        -161.2655  -134.3747   269.3822 H6            1 RES     
   12927 H6        -162.0422  -135.1632   268.0168 H6            1 RES     
   12928 H6        -162.7992  -132.7715   268.7642 H6            1 RES     
   12929 H6        -163.4595  -133.4166   270.2656 H6            1 RES     
   12930 H6        -164.7795  -133.5606   267.4025 H6            1 RES     
   12931 H6        -165.4236  -134.2839   268.8896 H6            1 RES     
   12932 H6        -166.4803  -132.0983   269.6263 H6            1 RES     
   12933 H6        -167.1278  -132.8823   268.2073 H6            1 RES     
   12934 H6        -167.0129  -131.0846   266.7757 H6            1 RES     
   12935 H6        -165.3771  -129.2154   266.7858 H6            1 RES     
   12936 H6        -164.8969  -130.9031   266.7963 H6            1 RES     
   12937 H6        -164.2645  -130.8128   269.2842 H6            1 RES     
   12938 H6        -164.4735  -129.0423   269.1230 H6            1 RES     
   12939 H6        -162.6329  -129.2049   267.2339 H6            1 RES     
   12940 H6        -162.4432  -130.9028   267.5986 H6            1 RES     
   12941 H6        -160.6425  -129.5037   268.6648 H6            1 RES     
   12942 H6        -161.5533  -130.4540   269.8669 H6            1 RES     
   12943 H6        -162.8566  -128.5592   270.5497 H6            1 RES     
   12944 H6        -161.1627  -128.1487   270.7523 H6            1 RES     
   12945 H6        -162.3474  -127.3053   268.0548 H6            1 RES     
   12946 H6        -163.1380  -126.6180   269.4740 H6            1 RES     
   12947 H6        -161.0993  -125.5857   270.2727 H6            1 RES     
   12948 H6        -161.4665  -125.1274   268.5708 H6            1 RES     
   12949 H6        -159.7231  -126.7526   267.7602 H6            1 RES     
   12950 H6        -159.0661  -125.4809   268.8597 H6            1 RES     
   12951 H6        -159.3236  -127.1476   269.4864 H6            1 RES     
   12952 H6        -168.8385  -129.9143   266.6433 H6            1 RES     
   12953 H6        -167.9887  -128.5974   267.2812 H6            1 RES     
   12954 H6        -169.2125  -127.9407   269.9674 H6            1 RES     
   12955 H6        -170.7368  -128.7505   270.4704 H6            1 RES     
   12956 H6        -168.2500  -130.4723   269.7162 H6            1 RES     
   12957 H6        -169.1414  -132.1588   271.0576 H6            1 RES     
   12958 H6        -170.4000  -131.0739   271.7229 H6            1 RES     
   12959 H6        -171.2694  -132.7614   270.1794 H6            1 RES     
   12960 H6        -171.6392  -131.0769   269.6616 H6            1 RES     
   12961 H6        -170.1045  -131.2290   267.8257 H6            1 RES     
   12962 H6        -169.2951  -132.6848   268.4523 H6            1 RES     
   12963 H6        -170.6999  -133.0672   266.4548 H6            1 RES     
   12964 H6        -171.2757  -133.9572   267.9175 H6            1 RES     
   12965 H6        -172.9629  -132.1328   268.3123 H6            1 RES     
   12966 H6        -172.4848  -131.3314   266.7704 H6            1 RES     
   12967 H6        -173.2344  -133.3944   265.5336 H6            1 RES     
   12968 H6        -173.4591  -134.2456   267.1188 H6            1 RES     
   12969 H6        -175.0185  -131.8234   266.1462 H6            1 RES     
   12970 H6        -175.1431  -132.5314   267.8241 H6            1 RES     
   12971 H6        -175.8423  -133.9021   265.1786 H6            1 RES     
   12972 H6        -176.9798  -133.2950   266.4535 H6            1 RES     
   12973 H6        -175.8761  -134.6752   266.8272 H6            1 RES     
   12974 H6        -168.5879  -129.3516   272.4785 H6            1 RES     
   12975 H6        -167.5009  -128.7500   271.1909 H6            1 RES     
   12976 H6        -166.0914  -130.7117   271.1687 H6            1 RES     
   12977 H6        -166.1501  -129.8356   272.6812 H6            1 RES     
   12978 H6        -167.2820  -132.6643   272.2831 H6            1 RES     
   12979 H6        -165.8302  -132.1104   273.1604 H6            1 RES     
   12980 H6        -168.7455  -131.4970   273.8344 H6            1 RES     
   12981 H6        -167.3488  -130.6943   274.6690 H6            1 RES     
   12982 H6        -166.5578  -132.7898   275.6230 H6            1 RES     
   12983 H6        -167.6995  -133.7520   274.6275 H6            1 RES     
   12984 H6        -168.5868  -133.6019   276.9133 H6            1 RES     
   12985 H6        -169.6461  -132.8254   275.7080 H6            1 RES     
   12986 H6        -169.6690  -131.4502   277.6770 H6            1 RES     
   12987 H6        -168.8516  -130.5590   276.3860 H6            1 RES     
   12988 H6        -166.6159  -131.0919   277.4006 H6            1 RES     
   12989 H6        -167.7052  -130.1974   278.5079 H6            1 RES     
   12990 H6        -167.1028  -133.2276   278.6333 H6            1 RES     
   12991 H6        -166.4597  -131.9439   279.7067 H6            1 RES     
   12992 H6        -168.7749  -131.4296   280.5214 H6            1 RES     
   12993 H6        -169.4298  -132.7650   279.4870 H6            1 RES     
   12994 H6        -168.2974  -133.1431   280.8217 H6            1 RES     
   12995 C0        -184.4178  -122.2242   267.0454 C0            1 RES     
   12996 C0        -184.2813  -124.0327   267.4085 C0            1 RES     
   12997 C0        -184.2015  -124.2078   268.7842 C0            1 RES     
   12998 S1        -183.7544  -125.7779   269.3197 S1            1 RES     
   12999 C0        -183.5462  -126.6119   267.8998 C0            1 RES     
   13000 C0        -183.9126  -125.4960   266.8798 C0            1 RES     
   13001 C0        -183.9264  -122.9544   269.4878 C0            1 RES     
   13002 C0        -183.4394  -122.2065   268.2573 C0            1 RES     
   13003 C0        -182.0844  -122.2703   268.1483 C0            1 RES     
   13004 C0        -181.4220  -122.8349   269.2357 C0            1 RES     
   13005 S1        -182.4860  -123.2716   270.5839 S1            1 RES     
   13006 H2        -183.7687  -125.7349   265.8329 H2            1 RES     
   13007 H2        -181.5540  -122.1016   267.2255 H2            1 RES     
   13008 N3        -181.9724  -129.7617   269.7852 N3            1 RES     
   13009 C0        -182.4377  -128.5562   269.4237 C0            1 RES     
   13010 C0        -182.9887  -128.1990   268.1043 C0            1 RES     
   13011 C0        -182.9275  -129.3992   267.2440 C0            1 RES     
   13012 N3        -183.3429  -129.4578   265.9390 N3            1 RES     
   13013 S1        -183.0669  -131.0429   265.5071 S1            1 RES     
   13014 N3        -182.4105  -131.7160   266.8658 N3            1 RES     
   13015 C0        -182.4051  -130.6828   267.7186 C0            1 RES     
   13016 C0        -181.9212  -130.8662   268.9907 C0            1 RES     
   13017 H4        -182.3663  -127.8290   270.2016 H4            1 RES     
   13018 C5        -193.1031  -105.0491   269.4527 C5            1 RES     
   13019 C5        -192.6198  -106.5127   269.2458 C5            1 RES     
   13020 C5        -191.7246  -106.7094   267.9786 C5            1 RES     
   13021 C5        -190.9119  -108.0853   267.8211 C5            1 RES     
   13022 C5        -191.6462  -109.4394   267.4293 C5            1 RES     
   13023 C5        -190.9046  -110.9303   267.4928 C5            1 RES     
   13024 C5        -189.8061  -111.5670   266.4337 C5            1 RES     
   13025 C5        -189.2774  -113.2290   266.2377 C5            1 RES     
   13026 C5        -188.0570  -114.1793   266.9571 C5            1 RES     
   13027 C5        -187.4564  -115.8774   266.9607 C5            1 RES     
   13028 C5        -186.3516  -116.9257   266.0360 C5            1 RES     
   13029 C5        -186.4675  -116.1319   264.6113 C5            1 RES     
   13030 C5        -187.8862  -115.8711   263.9268 C5            1 RES     
   13031 C5        -187.9431  -114.6777   262.8776 C5            1 RES     
   13032 C5        -189.2887  -114.5336   262.0685 C5            1 RES     
   13033 C5        -189.7559  -115.8394   261.3891 C5            1 RES     
   13034 C5        -188.6902  -116.4982   260.4801 C5            1 RES     
   13035 C5        -188.9998  -116.5168   258.9787 C5            1 RES     
   13036 C5        -189.1681  -115.1404   258.3445 C5            1 RES     
   13037 C5        -185.4494  -118.6769   266.1791 C5            1 RES     
   13038 C0        -185.4377  -120.5143   266.8538 C0            1 RES     
   13039 C5        -186.9509  -120.8469   266.8018 C5            1 RES     
   13040 C5        -187.9567  -119.6868   267.2685 C5            1 RES     
   13041 C5        -188.1762  -119.6475   268.7906 C5            1 RES     
   13042 C5        -186.9208  -119.6313   269.6929 C5            1 RES     
   13043 C5        -185.8849  -118.5266   269.3905 C5            1 RES     
   13044 C5        -184.8443  -118.3136   270.4821 C5            1 RES     
   13045 C5        -184.1134  -119.6054   270.8498 C5            1 RES     
   13046 C5        -183.2698  -119.4042   272.1044 C5            1 RES     
   13047 C5        -182.8193  -120.7609   272.6286 C5            1 RES     
   13048 C5        -182.1510  -120.6723   273.9815 C5            1 RES     
   13049 C5        -189.2976  -119.7388   266.4597 C5            1 RES     
   13050 C5        -190.2755  -118.5051   266.3673 C5            1 RES     
   13051 C5        -191.1984  -118.0692   267.5378 C5            1 RES     
   13052 C5        -192.0579  -119.2260   268.0636 C5            1 RES     
   13053 C5        -193.2028  -118.7752   268.9986 C5            1 RES     
   13054 C5        -193.7978  -119.9610   269.7897 C5            1 RES     
   13055 C5        -194.3465  -121.1314   268.9470 C5            1 RES     
   13056 C5        -195.5977  -120.8128   268.1074 C5            1 RES     
   13057 C5        -196.8373  -120.3938   268.9224 C5            1 RES     
   13058 C5        -197.3002  -121.4608   269.9183 C5            1 RES     
   13059 H6        -192.2467  -104.3471   269.5740 H6            1 RES     
   13060 H6        -193.7356  -104.6849   268.6152 H6            1 RES     
   13061 H6        -193.7101  -104.9658   270.3861 H6            1 RES     
   13062 H6        -192.0311  -106.7658   270.1522 H6            1 RES     
   13063 H6        -193.5111  -107.1703   269.1964 H6            1 RES     
   13064 H6        -192.3193  -106.4598   267.0708 H6            1 RES     
   13065 H6        -190.9537  -105.9074   268.0713 H6            1 RES     
   13066 H6        -190.3806  -108.2267   268.7822 H6            1 RES     
   13067 H6        -190.1628  -107.8971   267.0260 H6            1 RES     
   13068 H6        -192.1450  -109.2782   266.4445 H6            1 RES     
   13069 H6        -192.4828  -109.4801   268.1674 H6            1 RES     
   13070 H6        -191.7864  -111.6025   267.4001 H6            1 RES     
   13071 H6        -190.5210  -111.0259   268.5231 H6            1 RES     
   13072 H6        -190.3520  -111.3484   265.4821 H6            1 RES     
   13073 H6        -188.9339  -110.8819   266.4100 H6            1 RES     
   13074 H6        -188.9971  -113.1836   265.1649 H6            1 RES     
   13075 H6        -190.2442  -113.7762   266.2603 H6            1 RES     
   13076 H6        -187.1548  -113.5408   266.8610 H6            1 RES     
   13077 H6        -188.4061  -114.0678   268.0038 H6            1 RES     
   13078 H6        -188.3837  -116.4402   267.1053 H6            1 RES     
   13079 H6        -186.9615  -115.8687   267.9408 H6            1 RES     
   13080 H6        -185.4126  -116.4025   266.3249 H6            1 RES     
   13081 H6        -185.7240  -116.4689   263.8615 H6            1 RES     
   13082 H6        -186.1566  -115.0782   264.8404 H6            1 RES     
   13083 H6        -188.6634  -115.6126   264.6729 H6            1 RES     
   13084 H6        -188.1758  -116.8151   263.4397 H6            1 RES     
   13085 H6        -187.1112  -114.7635   262.1588 H6            1 RES     
   13086 H6        -187.7689  -113.6946   263.3740 H6            1 RES     
   13087 H6        -189.1835  -113.7375   261.2921 H6            1 RES     
   13088 H6        -190.1110  -114.1992   262.7428 H6            1 RES     
   13089 H6        -189.9946  -116.5367   262.2160 H6            1 RES     
   13090 H6        -190.7222  -115.7123   260.8486 H6            1 RES     
   13091 H6        -187.6862  -116.0687   260.6323 H6            1 RES     
   13092 H6        -188.6120  -117.5621   260.7872 H6            1 RES     
   13093 H6        -189.9192  -117.1128   258.8000 H6            1 RES     
   13094 H6        -188.1499  -117.0311   258.4772 H6            1 RES     
   13095 H6        -188.2645  -114.5163   258.5027 H6            1 RES     
   13096 H6        -189.3223  -115.2727   257.2511 H6            1 RES     
   13097 H6        -190.0582  -114.6248   258.7597 H6            1 RES     
   13098 H6        -184.4668  -118.3413   266.5825 H6            1 RES     
   13099 H6        -185.1605  -118.8255   265.1171 H6            1 RES     
   13100 H6        -187.1061  -121.0590   265.7265 H6            1 RES     
   13101 H6        -187.1495  -121.7733   267.3758 H6            1 RES     
   13102 H6        -187.5947  -118.7100   267.0077 H6            1 RES     
   13103 H6        -188.7677  -118.7442   269.0230 H6            1 RES     
   13104 H6        -188.7721  -120.5332   269.0816 H6            1 RES     
   13105 H6        -187.2911  -119.4970   270.7306 H6            1 RES     
   13106 H6        -186.4302  -120.6247   269.6218 H6            1 RES     
   13107 H6        -185.3044  -118.8083   268.5343 H6            1 RES     
   13108 H6        -186.3877  -117.5645   269.2023 H6            1 RES     
   13109 H6        -184.1026  -117.5528   270.1444 H6            1 RES     
   13110 H6        -185.3806  -117.9188   271.3674 H6            1 RES     
   13111 H6        -184.8725  -120.3691   271.1037 H6            1 RES     
   13112 H6        -183.5000  -119.9848   270.0006 H6            1 RES     
   13113 H6        -182.4007  -118.7417   271.8964 H6            1 RES     
   13114 H6        -183.9107  -118.9371   272.8811 H6            1 RES     
   13115 H6        -182.0971  -121.1777   271.9139 H6            1 RES     
   13116 H6        -183.7068  -121.4290   272.7371 H6            1 RES     
   13117 H6        -181.2222  -120.0738   273.9018 H6            1 RES     
   13118 H6        -181.9036  -121.7009   274.3212 H6            1 RES     
   13119 H6        -182.8468  -120.2112   274.7131 H6            1 RES     
   13120 H6        -189.8559  -120.6588   266.7087 H6            1 RES     
   13121 H6        -188.9642  -119.8251   265.4006 H6            1 RES     
   13122 H6        -189.7378  -117.6142   265.9913 H6            1 RES     
   13123 H6        -190.9815  -118.7609   265.5475 H6            1 RES     
   13124 H6        -190.6347  -117.6019   268.3720 H6            1 RES     
   13125 H6        -191.8774  -117.2802   267.1324 H6            1 RES     
   13126 H6        -191.3716  -119.9069   268.6070 H6            1 RES     
   13127 H6        -192.5181  -119.7644   267.2081 H6            1 RES     
   13128 H6        -193.9926  -118.2488   268.4144 H6            1 RES     
   13129 H6        -192.8121  -118.0573   269.7523 H6            1 RES     
   13130 H6        -194.5834  -119.5943   270.4836 H6            1 RES     
   13131 H6        -192.9788  -120.3683   270.4209 H6            1 RES     
   13132 H6        -194.5819  -121.9726   269.6304 H6            1 RES     
   13133 H6        -193.5480  -121.5049   268.2734 H6            1 RES     
   13134 H6        -195.3583  -120.0110   267.3776 H6            1 RES     
   13135 H6        -195.8593  -121.7255   267.5271 H6            1 RES     
   13136 H6        -196.6418  -119.4453   269.4633 H6            1 RES     
   13137 H6        -197.6690  -120.2091   268.2082 H6            1 RES     
   13138 H6        -197.5211  -122.4144   269.3928 H6            1 RES     
   13139 H6        -196.5334  -121.6402   270.6995 H6            1 RES     
   13140 H6        -198.2239  -121.1153   270.4284 H6            1 RES     
   13141 C0        -178.1517  -133.9955   270.7151 C0            1 RES     
   13142 C0        -178.8055  -132.8924   272.0481 C0            1 RES     
   13143 C0        -180.1294  -133.2302   272.2987 C0            1 RES     
   13144 S1        -181.0171  -132.1285   273.2734 S1            1 RES     
   13145 C0        -179.9055  -130.9401   273.6013 C0            1 RES     
   13146 C0        -178.6674  -131.5226   272.8613 C0            1 RES     
   13147 C0        -180.6891  -134.0912   271.2561 C0            1 RES     
   13148 C0        -179.6150  -133.7810   270.2262 C0            1 RES     
   13149 C0        -180.0055  -132.7747   269.3974 C0            1 RES     
   13150 C0        -181.3286  -132.3627   269.5376 C0            1 RES     
   13151 S1        -182.2597  -133.3070   270.7131 S1            1 RES     
   13152 H2        -177.7883  -130.8906   272.8232 H2            1 RES     
   13153 H2        -179.3173  -132.1813   268.8180 H2            1 RES     
   13154 N3        -182.6753  -128.5637   275.2245 N3            1 RES     
   13155 C0        -181.9962  -129.5112   274.5600 C0            1 RES     
   13156 C0        -180.5295  -129.6311   274.4781 C0            1 RES     
   13157 C0        -179.9369  -128.5165   275.2467 C0            1 RES     
   13158 N3        -178.5939  -128.2864   275.3964 N3            1 RES     
   13159 S1        -178.5303  -126.9384   276.3732 S1            1 RES     
   13160 N3        -180.1179  -126.5613   276.6331 N3            1 RES     
   13161 C0        -180.7523  -127.5221   275.9480 C0            1 RES     
   13162 C0        -182.1255  -127.5406   275.9347 C0            1 RES     
   13163 H4        -182.6306  -130.2063   274.0565 H4            1 RES     
   13164 C5        -174.7193  -151.6628   263.4832 C5            1 RES     
   13165 C5        -174.9190  -150.3321   264.2629 C5            1 RES     
   13166 C5        -174.0972  -149.1326   263.6868 C5            1 RES     
   13167 C5        -174.4464  -147.6503   264.1960 C5            1 RES     
   13168 C5        -174.0262  -147.1536   265.6461 C5            1 RES     
   13169 C5        -174.5712  -145.7279   266.3151 C5            1 RES     
   13170 C5        -174.0796  -144.1877   265.9694 C5            1 RES     
   13171 C5        -174.3350  -142.7047   266.8725 C5            1 RES     
   13172 C5        -175.5745  -141.5331   266.9054 C5            1 RES     
   13173 C5        -176.0451  -140.0512   267.8144 C5            1 RES     
   13174 C5        -175.7412  -138.2956   267.7943 C5            1 RES     
   13175 C5        -174.2668  -138.3555   267.0900 C5            1 RES     
   13176 C5        -173.0921  -139.2396   267.7124 C5            1 RES     
   13177 C5        -171.9254  -139.6489   266.7126 C5            1 RES     
   13178 C5        -170.6790  -140.3639   267.3618 C5            1 RES     
   13179 C5        -170.0813  -139.6099   268.5698 C5            1 RES     
   13180 C5        -169.7198  -138.1329   268.2803 C5            1 RES     
   13181 C5        -168.2272  -137.7839   268.3080 C5            1 RES     
   13182 C5        -167.3766  -138.5366   267.2908 C5            1 RES     
   13183 C5        -176.4555  -136.6249   268.5686 C5            1 RES     
   13184 C0        -177.3569  -135.7028   270.0413 C0            1 RES     
   13185 C5        -176.8208  -136.5079   271.2527 C5            1 RES     
   13186 C5        -176.7206  -138.0990   271.0686 C5            1 RES     
   13187 C5        -178.0412  -138.8304   271.3649 C5            1 RES     
   13188 C5        -179.3175  -138.3124   270.6626 C5            1 RES     
   13189 C5        -179.2415  -138.1917   269.1249 C5            1 RES     
   13190 C5        -180.5867  -138.0140   268.4330 C5            1 RES     
   13191 C5        -181.3787  -136.8328   268.9946 C5            1 RES     
   13192 C5        -182.8061  -136.8419   268.4573 C5            1 RES     
   13193 C5        -183.6527  -135.8685   269.2661 C5            1 RES     
   13194 C5        -185.1252  -135.9623   268.9382 C5            1 RES     
   13195 C5        -175.5055  -138.6870   271.8640 C5            1 RES     
   13196 C5        -174.8884  -140.1010   271.5379 C5            1 RES     
   13197 C5        -175.5752  -141.4352   271.9379 C5            1 RES     
   13198 C5        -175.9278  -141.4841   273.4302 C5            1 RES     
   13199 C5        -176.3163  -142.8933   273.9316 C5            1 RES     
   13200 C5        -177.0120  -142.8401   275.3097 C5            1 RES     
   13201 C5        -176.2143  -142.1676   276.4467 C5            1 RES     
   13202 C5        -174.9473  -142.9172   276.8993 C5            1 RES     
   13203 C5        -175.1962  -144.3272   277.4706 C5            1 RES     
   13204 C5        -176.1101  -144.3336   278.6992 C5            1 RES     
   13205 H6        -175.0308  -151.5652   262.4181 H6            1 RES     
   13206 H6        -173.6674  -152.0190   263.5069 H6            1 RES     
   13207 H6        -175.3524  -152.4715   263.9210 H6            1 RES     
   13208 H6        -176.0023  -150.1012   264.1911 H6            1 RES     
   13209 H6        -174.6548  -150.5079   265.3254 H6            1 RES     
   13210 H6        -173.0110  -149.3649   263.7650 H6            1 RES     
   13211 H6        -174.3369  -149.1463   262.5966 H6            1 RES     
   13212 H6        -175.5431  -147.5492   264.0824 H6            1 RES     
   13213 H6        -173.9509  -146.9665   263.4779 H6            1 RES     
   13214 H6        -172.9163  -147.2363   265.7210 H6            1 RES     
   13215 H6        -174.4160  -147.9695   266.3008 H6            1 RES     
   13216 H6        -174.2728  -145.8721   267.3772 H6            1 RES     
   13217 H6        -175.6725  -145.7820   266.2693 H6            1 RES     
   13218 H6        -172.9749  -144.3510   266.0347 H6            1 RES     
   13219 H6        -174.2653  -144.0157   264.8893 H6            1 RES     
   13220 H6        -173.4380  -142.1495   266.5280 H6            1 RES     
   13221 H6        -174.0940  -143.0280   267.9079 H6            1 RES     
   13222 H6        -175.7111  -141.2847   265.8327 H6            1 RES     
   13223 H6        -176.3996  -142.2249   267.1711 H6            1 RES     
   13224 H6        -175.9331  -140.3823   268.8514 H6            1 RES     
   13225 H6        -177.1240  -140.0766   267.6122 H6            1 RES     
   13226 H6        -176.2633  -138.0900   266.8330 H6            1 RES     
   13227 H6        -173.8896  -137.3601   266.7806 H6            1 RES     
   13228 H6        -174.4312  -138.8923   266.1184 H6            1 RES     
   13229 H6        -173.4657  -140.2070   268.1027 H6            1 RES     
   13230 H6        -172.6808  -138.6631   268.5555 H6            1 RES     
   13231 H6        -171.5706  -138.7632   266.1595 H6            1 RES     
   13232 H6        -172.2984  -140.3323   265.9145 H6            1 RES     
   13233 H6        -169.8811  -140.5111   266.5942 H6            1 RES     
   13234 H6        -170.9590  -141.3837   267.7143 H6            1 RES     
   13235 H6        -170.8637  -139.6349   269.3536 H6            1 RES     
   13236 H6        -169.2202  -140.1531   269.0231 H6            1 RES     
   13237 H6        -170.1529  -137.7736   267.3320 H6            1 RES     
   13238 H6        -170.1900  -137.5196   269.0772 H6            1 RES     
   13239 H6        -167.8247  -137.9705   269.3257 H6            1 RES     
   13240 H6        -168.1434  -136.6947   268.0960 H6            1 RES     
   13241 H6        -167.7504  -138.3710   266.2594 H6            1 RES     
   13242 H6        -166.3326  -138.1587   267.3559 H6            1 RES     
   13243 H6        -167.3663  -139.6225   267.5169 H6            1 RES     
   13244 H6        -177.1269  -136.3128   267.7362 H6            1 RES     
   13245 H6        -175.6006  -135.9453   268.3675 H6            1 RES     
   13246 H6        -175.8052  -136.0869   271.3813 H6            1 RES     
   13247 H6        -177.4184  -136.2683   272.1541 H6            1 RES     
   13248 H6        -176.4627  -138.3734   270.0629 H6            1 RES     
   13249 H6        -177.9104  -139.8903   271.0834 H6            1 RES     
   13250 H6        -178.2302  -138.7845   272.4541 H6            1 RES     
   13251 H6        -180.1232  -139.0298   270.9235 H6            1 RES     
   13252 H6        -179.5746  -137.3234   271.0967 H6            1 RES     
   13253 H6        -178.6999  -137.3038   268.8643 H6            1 RES     
   13254 H6        -178.7454  -139.0743   268.6906 H6            1 RES     
   13255 H6        -180.4250  -137.8642   267.3401 H6            1 RES     
   13256 H6        -181.1540  -138.9536   268.5830 H6            1 RES     
   13257 H6        -181.4574  -136.9620   270.0905 H6            1 RES     
   13258 H6        -180.8699  -135.8633   268.7882 H6            1 RES     
   13259 H6        -182.8240  -136.5903   267.3738 H6            1 RES     
   13260 H6        -183.2252  -137.8591   268.6056 H6            1 RES     
   13261 H6        -183.3122  -134.8503   269.0352 H6            1 RES     
   13262 H6        -183.5372  -136.0928   270.3534 H6            1 RES     
   13263 H6        -185.2924  -135.6765   267.8810 H6            1 RES     
   13264 H6        -185.6804  -135.2676   269.6044 H6            1 RES     
   13265 H6        -185.4841  -136.9968   269.1206 H6            1 RES     
   13266 H6        -175.6744  -138.5784   272.9503 H6            1 RES     
   13267 H6        -174.6597  -138.0173   271.5876 H6            1 RES     
   13268 H6        -174.5994  -140.1589   270.4714 H6            1 RES     
   13269 H6        -173.9192  -140.1223   272.0822 H6            1 RES     
   13270 H6        -176.4755  -141.6501   271.3252 H6            1 RES     
   13271 H6        -174.8420  -142.2496   271.7211 H6            1 RES     
   13272 H6        -176.7748  -140.7835   273.5770 H6            1 RES     
   13273 H6        -175.0554  -141.1457   274.0284 H6            1 RES     
   13274 H6        -175.4179  -143.5522   273.9632 H6            1 RES     
   13275 H6        -177.0433  -143.3554   273.2287 H6            1 RES     
   13276 H6        -177.3182  -143.8625   275.6166 H6            1 RES     
   13277 H6        -177.9463  -142.2538   275.1746 H6            1 RES     
   13278 H6        -176.8869  -142.0470   277.3202 H6            1 RES     
   13279 H6        -175.9324  -141.1396   276.1392 H6            1 RES     
   13280 H6        -174.2392  -142.9933   276.0475 H6            1 RES     
   13281 H6        -174.4553  -142.3072   277.6893 H6            1 RES     
   13282 H6        -175.6230  -144.9906   276.6907 H6            1 RES     
   13283 H6        -174.2140  -144.7513   277.7730 H6            1 RES     
   13284 H6        -175.6892  -143.6901   279.5010 H6            1 RES     
   13285 H6        -177.1302  -143.9818   278.4424 H6            1 RES     
   13286 H6        -176.2008  -145.3698   279.0877 H6            1 RES     
   13287 C0        -185.5238  -123.6174   276.1227 C0            1 RES     
   13288 C0        -186.3566  -125.2486   275.8636 C0            1 RES     
   13289 C0        -186.1678  -126.0318   276.9953 C0            1 RES     
   13290 S1        -186.5870  -127.6909   276.8425 S1            1 RES     
   13291 C0        -187.1070  -127.8017   275.2700 C0            1 RES     
   13292 C0        -186.9513  -126.3169   274.8332 C0            1 RES     
   13293 C0        -185.1356  -125.4892   277.8794 C0            1 RES     
   13294 C0        -184.5206  -124.5745   276.8326 C0            1 RES     
   13295 C0        -183.4668  -125.1741   276.2148 C0            1 RES     
   13296 C0        -183.0644  -126.3900   276.7621 C0            1 RES     
   13297 S1        -183.9591  -126.8597   278.2178 S1            1 RES     
   13298 H2        -187.1341  -126.1013   273.7873 H2            1 RES     
   13299 H2        -183.0880  -124.8668   275.2537 H2            1 RES     
   13300 N3        -187.2652  -131.7897   275.4270 N3            1 RES     
   13301 C0        -187.0350  -130.4840   275.6333 C0            1 RES     
   13302 C0        -187.4986  -129.3758   274.7795 C0            1 RES     
   13303 C0        -188.2518  -129.9559   273.6479 C0            1 RES     
   13304 N3        -188.8329  -129.2380   272.6350 N3            1 RES     
   13305 S1        -189.5553  -130.4033   271.6887 S1            1 RES     
   13306 N3        -189.1745  -131.8217   272.4457 N3            1 RES     
   13307 C0        -188.4606  -131.3979   273.4973 C0            1 RES     
   13308 C0        -187.9630  -132.3199   274.3851 C0            1 RES     
   13309 H4        -186.4489  -130.2945   276.5050 H4            1 RES     
   13310 C5        -182.7113  -107.4659   286.4876 C5            1 RES     
   13311 C5        -183.1609  -108.7281   285.6981 C5            1 RES     
   13312 C5        -182.7421  -108.7135   284.1914 C5            1 RES     
   13313 C5        -182.8663  -110.0748   283.3488 C5            1 RES     
   13314 C5        -184.2794  -110.6316   282.8805 C5            1 RES     
   13315 C5        -184.4900  -112.1494   282.2255 C5            1 RES     
   13316 C5        -184.1155  -112.6600   280.6981 C5            1 RES     
   13317 C5        -184.6364  -114.1017   279.8435 C5            1 RES     
   13318 C5        -184.0511  -115.7011   279.7467 C5            1 RES     
   13319 C5        -184.5012  -117.2913   279.0308 C5            1 RES     
   13320 C5        -184.3282  -118.1854   277.4992 C5            1 RES     
   13321 C5        -184.2113  -116.8822   276.5185 C5            1 RES     
   13322 C5        -185.3352  -115.7483   276.5183 C5            1 RES     
   13323 C5        -184.8885  -114.3267   275.9634 C5            1 RES     
   13324 C5        -186.0373  -113.2604   275.7921 C5            1 RES     
   13325 C5        -187.2517  -113.7699   274.9853 C5            1 RES     
   13326 C5        -186.8923  -114.3500   273.5959 C5            1 RES     
   13327 C5        -187.3962  -113.5604   272.3823 C5            1 RES     
   13328 C5        -186.8724  -112.1315   272.2880 C5            1 RES     
   13329 C5        -184.5391  -120.0122   276.7786 C5            1 RES     
   13330 C0        -185.4397  -121.7493   276.8321 C0            1 RES     
   13331 C5        -186.8683  -121.3171   277.2510 C5            1 RES     
   13332 C5        -186.9719  -120.1761   278.3748 C5            1 RES     
   13333 C5        -186.8853  -120.7250   279.8093 C5            1 RES     
   13334 C5        -185.7063  -121.6679   280.1431 C5            1 RES     
   13335 C5        -184.2964  -121.1300   279.8146 C5            1 RES     
   13336 C5        -183.1534  -121.9088   280.4524 C5            1 RES     
   13337 C5        -183.2136  -123.4018   280.1277 C5            1 RES     
   13338 C5        -182.2118  -124.1752   280.9789 C5            1 RES     
   13339 C5        -182.5118  -125.6645   280.8772 C5            1 RES     
   13340 C5        -181.6999  -126.4919   281.8473 C5            1 RES     
   13341 C5        -188.2256  -119.2649   278.1447 C5            1 RES     
   13342 C5        -188.3553  -117.8305   278.7868 C5            1 RES     
   13343 C5        -188.6797  -117.6034   280.2885 C5            1 RES     
   13344 C5        -189.9385  -118.3591   280.7331 C5            1 RES     
   13345 C5        -190.4738  -117.9177   282.1140 C5            1 RES     
   13346 C5        -191.4902  -118.9306   282.6857 C5            1 RES     
   13347 C5        -192.7222  -119.2259   281.8048 C5            1 RES     
   13348 C5        -193.7021  -118.0518   281.6226 C5            1 RES     
   13349 C5        -194.3515  -117.5400   282.9236 C5            1 RES     
   13350 C5        -195.1613  -118.6098   283.6615 C5            1 RES     
   13351 H6        -181.6033  -107.3510   286.4815 H6            1 RES     
   13352 H6        -183.1603  -106.5305   286.0907 H6            1 RES     
   13353 H6        -183.0111  -107.5478   287.5599 H6            1 RES     
   13354 H6        -182.6751  -109.5882   286.2044 H6            1 RES     
   13355 H6        -184.2614  -108.8249   285.7934 H6            1 RES     
   13356 H6        -183.2350  -107.8530   283.6851 H6            1 RES     
   13357 H6        -181.6531  -108.4702   284.2211 H6            1 RES     
   13358 H6        -182.3566  -110.8468   283.9572 H6            1 RES     
   13359 H6        -182.2776  -109.9056   282.4249 H6            1 RES     
   13360 H6        -184.7553  -109.8480   282.2450 H6            1 RES     
   13361 H6        -184.8668  -110.6219   283.8298 H6            1 RES     
   13362 H6        -185.5975  -112.2426   282.2748 H6            1 RES     
   13363 H6        -184.0644  -112.8513   282.9632 H6            1 RES     
   13364 H6        -184.5928  -111.8256   280.1261 H6            1 RES     
   13365 H6        -183.0272  -112.5008   280.5536 H6            1 RES     
   13366 H6        -184.5543  -113.7133   278.8072 H6            1 RES     
   13367 H6        -185.7257  -114.1112   280.0625 H6            1 RES     
   13368 H6        -182.9756  -115.5592   279.5135 H6            1 RES     
   13369 H6        -184.1065  -115.9252   280.8314 H6            1 RES     
   13370 H6        -185.5472  -117.3847   279.3381 H6            1 RES     
   13371 H6        -183.9349  -117.9388   279.7132 H6            1 RES     
   13372 H6        -183.2249  -118.3207   277.5580 H6            1 RES     
   13373 H6        -183.9111  -117.1401   275.4831 H6            1 RES     
   13374 H6        -183.3366  -116.3002   276.9128 H6            1 RES     
   13375 H6        -185.7071  -115.5351   277.5400 H6            1 RES     
   13376 H6        -186.1731  -116.1396   275.9207 H6            1 RES     
   13377 H6        -184.3719  -114.4415   274.9959 H6            1 RES     
   13378 H6        -184.1217  -113.8581   276.6234 H6            1 RES     
   13379 H6        -185.6346  -112.3414   275.3014 H6            1 RES     
   13380 H6        -186.4155  -112.9364   276.7894 H6            1 RES     
   13381 H6        -187.7005  -114.5754   275.5990 H6            1 RES     
   13382 H6        -188.0571  -113.0037   274.9049 H6            1 RES     
   13383 H6        -185.8097  -114.5263   273.4827 H6            1 RES     
   13384 H6        -187.3688  -115.3502   273.5268 H6            1 RES     
   13385 H6        -188.5061  -113.5394   272.3921 H6            1 RES     
   13386 H6        -187.0675  -114.1137   271.4744 H6            1 RES     
   13387 H6        -185.7631  -112.1145   272.2742 H6            1 RES     
   13388 H6        -187.2470  -111.6805   271.3430 H6            1 RES     
   13389 H6        -187.2470  -111.5211   273.1350 H6            1 RES     
   13390 H6        -183.4858  -120.3639   276.8674 H6            1 RES     
   13391 H6        -184.5558  -119.7836   275.6920 H6            1 RES     
   13392 H6        -187.2851  -120.9359   276.2990 H6            1 RES     
   13393 H6        -187.4519  -122.2064   277.5600 H6            1 RES     
   13394 H6        -186.1766  -119.4588   278.2959 H6            1 RES     
   13395 H6        -186.8304  -119.8631   280.4976 H6            1 RES     
   13396 H6        -187.8162  -121.2814   280.0282 H6            1 RES     
   13397 H6        -185.7679  -121.8608   281.2343 H6            1 RES     
   13398 H6        -185.8676  -122.6272   279.6079 H6            1 RES     
   13399 H6        -184.1158  -121.2254   278.7621 H6            1 RES     
   13400 H6        -184.2039  -120.0745   280.1165 H6            1 RES     
   13401 H6        -182.1801  -121.4934   280.1017 H6            1 RES     
   13402 H6        -183.2306  -121.7578   281.5472 H6            1 RES     
   13403 H6        -184.2161  -123.7746   280.4102 H6            1 RES     
   13404 H6        -183.0590  -123.5910   279.0406 H6            1 RES     
   13405 H6        -181.1681  -123.9503   280.6664 H6            1 RES     
   13406 H6        -182.3518  -123.8733   282.0379 H6            1 RES     
   13407 H6        -182.2676  -125.9906   279.8574 H6            1 RES     
   13408 H6        -183.5895  -125.8414   281.1072 H6            1 RES     
   13409 H6        -180.6223  -126.4002   281.6070 H6            1 RES     
   13410 H6        -182.0135  -127.5538   281.7543 H6            1 RES     
   13411 H6        -181.8953  -126.1504   282.8852 H6            1 RES     
   13412 H6        -189.1516  -119.8461   278.3027 H6            1 RES     
   13413 H6        -188.1710  -119.0088   277.0623 H6            1 RES     
   13414 H6        -187.4826  -117.2065   278.5161 H6            1 RES     
   13415 H6        -189.2051  -117.3536   278.2518 H6            1 RES     
   13416 H6        -187.8265  -117.8589   280.9509 H6            1 RES     
   13417 H6        -188.8619  -116.5084   280.4139 H6            1 RES     
   13418 H6        -189.6683  -119.4343   280.7582 H6            1 RES     
   13419 H6        -190.7500  -118.1952   279.9927 H6            1 RES     
   13420 H6        -190.9207  -116.8989   282.0463 H6            1 RES     
   13421 H6        -189.6359  -117.8656   282.8430 H6            1 RES     
   13422 H6        -191.8173  -118.6062   283.6962 H6            1 RES     
   13423 H6        -190.9458  -119.8902   282.8189 H6            1 RES     
   13424 H6        -193.2711  -120.0812   282.2487 H6            1 RES     
   13425 H6        -192.3851  -119.5703   280.8055 H6            1 RES     
   13426 H6        -193.1792  -117.2083   281.1247 H6            1 RES     
   13427 H6        -194.5147  -118.3897   280.9416 H6            1 RES     
   13428 H6        -193.5794  -117.1275   283.6049 H6            1 RES     
   13429 H6        -195.0430  -116.7113   282.6570 H6            1 RES     
   13430 H6        -195.9546  -119.0218   283.0018 H6            1 RES     
   13431 H6        -194.5092  -119.4355   284.0128 H6            1 RES     
   13432 H6        -195.6425  -118.1593   284.5550 H6            1 RES     
   13433 C0        -186.3423  -137.1900   273.5907 C0            1 RES     
   13434 C0        -186.0511  -136.6340   275.3307 C0            1 RES     
   13435 C0        -187.2794  -136.4239   275.9445 C0            1 RES     
   13436 S1        -187.2374  -135.6065   277.4550 S1            1 RES     
   13437 C0        -185.6183  -135.3170   277.6784 C0            1 RES     
   13438 C0        -185.0487  -135.9889   276.3963 C0            1 RES     
   13439 C0        -188.3810  -136.3844   274.9819 C0            1 RES     
   13440 C0        -187.4970  -136.1592   273.7660 C0            1 RES     
   13441 C0        -187.3910  -134.8342   273.4746 C0            1 RES     
   13442 C0        -188.2208  -133.9911   274.2098 C0            1 RES     
   13443 S1        -189.3162  -134.8382   275.3157 S1            1 RES     
   13444 H2        -183.9865  -135.8677   276.2209 H2            1 RES     
   13445 H2        -186.5930  -134.4181   272.8818 H2            1 RES     
   13446 N3        -186.3029  -132.9631   280.8318 N3            1 RES     
   13447 C0        -186.3800  -133.7060   279.7172 C0            1 RES     
   13448 C0        -185.2618  -134.4109   279.0654 C0            1 RES     
   13449 C0        -184.0367  -134.1456   279.8483 C0            1 RES     
   13450 N3        -182.7883  -134.6259   279.5488 N3            1 RES     
   13451 S1        -181.8325  -134.0375   280.7799 S1            1 RES     
   13452 N3        -182.8784  -133.1580   281.7086 N3            1 RES     
   13453 C0        -184.0390  -133.3221   281.0598 C0            1 RES     
   13454 C0        -185.1728  -132.7241   281.5525 C0            1 RES     
   13455 H4        -187.3642  -133.7438   279.3060 H4            1 RES     
   13456 C5        -194.4916  -149.2608   260.7807 C5            1 RES     
   13457 C5        -193.7921  -148.4822   261.9308 C5            1 RES     
   13458 C5        -192.5485  -147.6542   261.4683 C5            1 RES     
   13459 C5        -191.9304  -146.5710   262.4798 C5            1 RES     
   13460 C5        -191.0793  -147.0140   263.7470 C5            1 RES     
   13461 C5        -190.6269  -145.9596   264.9555 C5            1 RES     
   13462 C5        -189.4270  -144.8226   264.9183 C5            1 RES     
   13463 C5        -188.6688  -143.9554   266.2423 C5            1 RES     
   13464 C5        -189.0265  -142.5095   267.0739 C5            1 RES     
   13465 C5        -188.4436  -141.5507   268.4828 C5            1 RES     
   13466 C5        -187.2256  -140.3078   268.8652 C5            1 RES     
   13467 C5        -186.1675  -140.6926   267.6794 C5            1 RES     
   13468 C5        -185.5984  -142.1771   267.5334 C5            1 RES     
   13469 C5        -185.0327  -142.5670   266.0994 C5            1 RES     
   13470 C5        -184.3069  -143.9633   265.9999 C5            1 RES     
   13471 C5        -183.2071  -144.1765   267.0629 C5            1 RES     
   13472 C5        -182.1396  -143.0563   267.1049 C5            1 RES     
   13473 C5        -180.7226  -143.4559   266.6771 C5            1 RES     
   13474 C5        -180.6083  -143.9662   265.2448 C5            1 RES     
   13475 C5        -186.7587  -139.0344   270.3009 C5            1 RES     
   13476 C0        -186.7476  -138.5721   272.2030 C0            1 RES     
   13477 C5        -186.5618  -139.9748   272.8363 C5            1 RES     
   13478 C5        -187.3914  -141.1773   272.1720 C5            1 RES     
   13479 C5        -188.8278  -141.2958   272.7098 C5            1 RES     
   13480 C5        -189.6957  -140.0162   272.7162 C5            1 RES     
   13481 C5        -189.8133  -139.2723   271.3680 C5            1 RES     
   13482 C5        -190.9244  -138.2321   271.3096 C5            1 RES     
   13483 C5        -190.8265  -137.2114   272.4439 C5            1 RES     
   13484 C5        -192.0836  -136.3492   272.4976 C5            1 RES     
   13485 C5        -192.1057  -135.5762   273.8093 C5            1 RES     
   13486 C5        -193.4130  -134.8532   274.0397 C5            1 RES     
   13487 C5        -186.5973  -142.5257   272.2500 C5            1 RES     
   13488 C5        -186.9294  -143.7553   271.3203 C5            1 RES     
   13489 C5        -188.1657  -144.6696   271.5381 C5            1 RES     
   13490 C5        -188.2415  -145.2152   272.9699 C5            1 RES     
   13491 C5        -189.2595  -146.3648   273.1444 C5            1 RES     
   13492 C5        -189.5771  -146.6286   274.6328 C5            1 RES     
   13493 C5        -188.3706  -146.9621   275.5351 C5            1 RES     
   13494 C5        -187.6787  -148.3070   275.2445 C5            1 RES     
   13495 C5        -188.5719  -149.5499   275.4285 C5            1 RES     
   13496 C5        -189.1248  -149.6974   276.8488 C5            1 RES     
   13497 H6        -194.8627  -148.5738   259.9861 H6            1 RES     
   13498 H6        -193.8261  -150.0136   260.3069 H6            1 RES     
   13499 H6        -195.3868  -149.8061   261.1654 H6            1 RES     
   13500 H6        -194.5604  -147.7918   262.3372 H6            1 RES     
   13501 H6        -193.5034  -149.2080   262.7177 H6            1 RES     
   13502 H6        -191.7775  -148.3497   261.0661 H6            1 RES     
   13503 H6        -192.9266  -147.0745   260.5926 H6            1 RES     
   13504 H6        -192.7883  -145.9574   262.8165 H6            1 RES     
   13505 H6        -191.2618  -145.9378   261.8627 H6            1 RES     
   13506 H6        -190.2066  -147.6020   263.3766 H6            1 RES     
   13507 H6        -191.7449  -147.7687   264.2303 H6            1 RES     
   13508 H6        -190.2927  -146.6758   265.7386 H6            1 RES     
   13509 H6        -191.5637  -145.4949   265.3083 H6            1 RES     
   13510 H6        -188.6049  -145.4668   264.5179 H6            1 RES     
   13511 H6        -189.6566  -144.1265   264.0856 H6            1 RES     
   13512 H6        -187.6837  -143.7658   265.7678 H6            1 RES     
   13513 H6        -188.4852  -144.7740   266.9709 H6            1 RES     
   13514 H6        -189.1724  -141.7788   266.2518 H6            1 RES     
   13515 H6        -190.0412  -142.8023   267.4124 H6            1 RES     
   13516 H6        -188.3693  -142.3191   269.2584 H6            1 RES     
   13517 H6        -189.3713  -141.0042   268.6978 H6            1 RES     
   13518 H6        -187.6921  -139.4897   268.2719 H6            1 RES     
   13519 H6        -185.3573  -139.9460   267.5575 H6            1 RES     
   13520 H6        -186.7552  -140.6065   266.7273 H6            1 RES     
   13521 H6        -186.3771  -142.9395   267.7334 H6            1 RES     
   13522 H6        -184.8077  -142.2842   268.2921 H6            1 RES     
   13523 H6        -184.3407  -141.7876   265.7390 H6            1 RES     
   13524 H6        -185.8441  -142.5802   265.3348 H6            1 RES     
   13525 H6        -183.8599  -144.0892   264.9840 H6            1 RES     
   13526 H6        -185.0443  -144.7911   266.1165 H6            1 RES     
   13527 H6        -183.7342  -144.1988   268.0368 H6            1 RES     
   13528 H6        -182.7322  -145.1816   266.9838 H6            1 RES     
   13529 H6        -182.4462  -142.1637   266.5350 H6            1 RES     
   13530 H6        -182.0559  -142.7249   268.1611 H6            1 RES     
   13531 H6        -180.3341  -144.2314   267.3700 H6            1 RES     
   13532 H6        -180.0845  -142.5498   266.7774 H6            1 RES     
   13533 H6        -180.9872  -143.2136   264.5229 H6            1 RES     
   13534 H6        -179.5357  -144.1616   265.0250 H6            1 RES     
   13535 H6        -181.1655  -144.9175   265.1230 H6            1 RES     
   13536 H6        -187.2675  -138.1247   269.9078 H6            1 RES     
   13537 H6        -185.7160  -138.7929   270.0048 H6            1 RES     
   13538 H6        -185.4784  -140.1524   272.6955 H6            1 RES     
   13539 H6        -186.7724  -139.9248   273.9226 H6            1 RES     
   13540 H6        -187.4941  -141.0580   271.1097 H6            1 RES     
   13541 H6        -189.3536  -142.0544   272.1035 H6            1 RES     
   13542 H6        -188.7821  -141.6606   273.7534 H6            1 RES     
   13543 H6        -190.7095  -140.3354   273.0357 H6            1 RES     
   13544 H6        -189.2879  -139.3248   273.4832 H6            1 RES     
   13545 H6        -188.9207  -138.7037   271.1966 H6            1 RES     
   13546 H6        -189.9670  -139.9863   270.5431 H6            1 RES     
   13547 H6        -190.8846  -137.7011   270.3302 H6            1 RES     
   13548 H6        -191.8846  -138.7806   271.3780 H6            1 RES     
   13549 H6        -190.7867  -137.7644   273.4012 H6            1 RES     
   13550 H6        -189.9067  -136.5888   272.3563 H6            1 RES     
   13551 H6        -192.1325  -135.6637   271.6229 H6            1 RES     
   13552 H6        -192.9658  -137.0228   272.4869 H6            1 RES     
   13553 H6        -191.3002  -134.8304   273.7768 H6            1 RES     
   13554 H6        -191.9614  -136.2852   274.6591 H6            1 RES     
   13555 H6        -193.5606  -134.0867   273.2536 H6            1 RES     
   13556 H6        -193.3745  -134.3627   275.0360 H6            1 RES     
   13557 H6        -194.2502  -135.5820   274.0315 H6            1 RES     
   13558 H6        -186.5009  -142.8493   273.3018 H6            1 RES     
   13559 H6        -185.5797  -142.2545   271.8880 H6            1 RES     
   13560 H6        -186.8965  -143.4541   270.2562 H6            1 RES     
   13561 H6        -186.0624  -144.4419   271.4339 H6            1 RES     
   13562 H6        -189.1184  -144.1672   271.2696 H6            1 RES     
   13563 H6        -188.0530  -145.5318   270.8368 H6            1 RES     
   13564 H6        -188.5214  -144.3604   273.6185 H6            1 RES     
   13565 H6        -187.2455  -145.6027   273.2720 H6            1 RES     
   13566 H6        -188.8859  -147.2892   272.6461 H6            1 RES     
   13567 H6        -190.2221  -146.0914   272.6598 H6            1 RES     
   13568 H6        -190.3448  -147.4266   274.7183 H6            1 RES     
   13569 H6        -190.0369  -145.6989   275.0319 H6            1 RES     
   13570 H6        -188.7130  -146.9593   276.5900 H6            1 RES     
   13571 H6        -187.6198  -146.1488   275.4598 H6            1 RES     
   13572 H6        -187.2791  -148.3006   274.2086 H6            1 RES     
   13573 H6        -186.8121  -148.4000   275.9363 H6            1 RES     
   13574 H6        -189.4132  -149.5319   274.7058 H6            1 RES     
   13575 H6        -187.9563  -150.4487   275.2064 H6            1 RES     
   13576 H6        -188.2957  -149.7381   277.5872 H6            1 RES     
   13577 H6        -189.8041  -148.8585   277.1040 H6            1 RES     
   13578 H6        -189.7109  -150.6376   276.9222 H6            1 RES     
   13579 C0        -185.7437  -128.2492   284.1264 C0            1 RES     
   13580 C0        -187.3695  -129.0376   283.7307 C0            1 RES     
   13581 C0        -187.4679  -130.2343   284.4292 C0            1 RES     
   13582 S1        -188.7545  -131.2743   283.9654 S1            1 RES     
   13583 C0        -189.4928  -130.4321   282.7403 C0            1 RES     
   13584 C0        -188.6126  -129.1495   282.7313 C0            1 RES     
   13585 C0        -186.1823  -130.6603   284.9836 C0            1 RES     
   13586 C0        -185.3409  -129.7537   284.0999 C0            1 RES     
   13587 C0        -184.9117  -130.4119   282.9889 C0            1 RES     
   13588 C0        -185.1692  -131.7805   282.9666 C0            1 RES     
   13589 S1        -185.9269  -132.3984   284.4446 S1            1 RES     
   13590 H2        -188.8102  -128.4359   281.9404 H2            1 RES     
   13591 H2        -184.5862  -129.9125   282.0910 H2            1 RES     
   13592 N3        -191.8072  -133.5401   281.7722 N3            1 RES     
   13593 C0        -190.8624  -132.7158   282.2501 C0            1 RES     
   13594 C0        -190.7638  -131.2679   281.9935 C0            1 RES     
   13595 C0        -191.8819  -130.8844   281.1065 C0            1 RES     
   13596 N3        -192.1210  -129.6181   280.6392 N3            1 RES     
   13597 S1        -193.5087  -129.7866   279.7330 S1            1 RES     
   13598 N3        -193.8625  -131.3967   279.8444 N3            1 RES     
   13599 C0        -192.8758  -131.8491   280.6299 C0            1 RES     
   13600 C0        -192.8381  -133.1821   280.9582 C0            1 RES     
   13601 H4        -190.1389  -133.2144   282.8560 H4            1 RES     
   13602 C5        -172.8317  -121.5103   296.9358 C5            1 RES     
   13603 C5        -174.0252  -121.9446   296.0383 C5            1 RES     
   13604 C5        -173.9167  -121.4485   294.5590 C5            1 RES     
   13605 C5        -174.9078  -122.0801   293.4648 C5            1 RES     
   13606 C5        -176.4456  -121.6818   293.4142 C5            1 RES     
   13607 C5        -177.5639  -122.4806   292.4716 C5            1 RES     
   13608 C5        -177.7861  -122.3651   290.8373 C5            1 RES     
   13609 C5        -179.1476  -122.8788   289.8563 C5            1 RES     
   13610 C5        -179.5717  -124.3408   289.0863 C5            1 RES     
   13611 C5        -180.9356  -125.0631   288.1579 C5            1 RES     
   13612 C5        -181.5355  -125.1556   286.4827 C5            1 RES     
   13613 C5        -180.8750  -123.7557   285.9557 C5            1 RES     
   13614 C5        -181.1644  -122.3755   286.7041 C5            1 RES     
   13615 C5        -180.1005  -121.2183   286.4645 C5            1 RES     
   13616 C5        -180.4753  -119.8037   287.0517 C5            1 RES     
   13617 C5        -181.8789  -119.3058   286.6428 C5            1 RES     
   13618 C5        -182.1297  -119.2992   285.1153 C5            1 RES     
   13619 C5        -182.2982  -117.9218   284.4635 C5            1 RES     
   13620 C5        -181.0935  -116.9976   284.6034 C5            1 RES     
   13621 C5        -182.8358  -126.1659   285.3922 C5            1 RES     
   13622 C0        -184.5257  -127.1457   285.2662 C0            1 RES     
   13623 C5        -185.3857  -126.3641   286.2922 C5            1 RES     
   13624 C5        -184.6577  -125.9286   287.6544 C5            1 RES     
   13625 C5        -184.6611  -127.0323   288.7261 C5            1 RES     
   13626 C5        -184.1673  -128.4362   288.3070 C5            1 RES     
   13627 C5        -182.7704  -128.4936   287.6511 C5            1 RES     
   13628 C5        -182.1662  -129.8889   287.5612 C5            1 RES     
   13629 C5        -183.0950  -130.8815   286.8612 C5            1 RES     
   13630 C5        -182.5690  -132.3051   287.0135 C5            1 RES     
   13631 C5        -183.6559  -133.2881   286.6001 C5            1 RES     
   13632 C5        -183.2958  -134.7227   286.9118 C5            1 RES     
   13633 C5        -185.2134  -124.5625   288.1833 C5            1 RES     
   13634 C5        -184.4213  -123.6727   289.2165 C5            1 RES     
   13635 C5        -184.3195  -124.0198   290.7269 C5            1 RES     
   13636 C5        -185.6952  -124.2504   291.3654 C5            1 RES     
   13637 C5        -185.6662  -124.2838   292.9102 C5            1 RES     
   13638 C5        -186.9662  -124.8784   293.4955 C5            1 RES     
   13639 C5        -188.2773  -124.1729   293.0903 C5            1 RES     
   13640 C5        -188.4561  -122.7441   293.6366 C5            1 RES     
   13641 C5        -188.4942  -122.6366   295.1740 C5            1 RES     
   13642 C5        -189.6302  -123.4407   295.8124 C5            1 RES     
   13643 H6        -171.8640  -121.9075   296.5526 H6            1 RES     
   13644 H6        -172.7436  -120.4066   297.0261 H6            1 RES     
   13645 H6        -172.9500  -121.9183   297.9683 H6            1 RES     
   13646 H6        -174.0239  -123.0544   296.0527 H6            1 RES     
   13647 H6        -174.9623  -121.5764   296.5026 H6            1 RES     
   13648 H6        -173.9234  -120.3351   294.5473 H6            1 RES     
   13649 H6        -172.8876  -121.7530   294.2520 H6            1 RES     
   13650 H6        -174.8218  -123.1773   293.5863 H6            1 RES     
   13651 H6        -174.4814  -121.7976   292.4814 H6            1 RES     
   13652 H6        -176.5019  -120.5784   293.2597 H6            1 RES     
   13653 H6        -176.7678  -121.8367   294.4718 H6            1 RES     
   13654 H6        -178.5123  -122.0860   292.8992 H6            1 RES     
   13655 H6        -177.4871  -123.5434   292.7587 H6            1 RES     
   13656 H6        -177.8051  -121.2497   290.7542 H6            1 RES     
   13657 H6        -176.8321  -122.6573   290.3523 H6            1 RES     
   13658 H6        -179.0316  -122.1517   289.0260 H6            1 RES     
   13659 H6        -180.0075  -122.5025   290.4510 H6            1 RES     
   13660 H6        -178.6521  -124.6015   288.5229 H6            1 RES     
   13661 H6        -179.5672  -124.9731   289.9974 H6            1 RES     
   13662 H6        -181.7924  -124.8105   288.7899 H6            1 RES     
   13663 H6        -180.7225  -126.1211   288.3599 H6            1 RES     
   13664 H6        -180.7000  -125.7744   286.0853 H6            1 RES     
   13665 H6        -180.9388  -123.6291   284.8563 H6            1 RES     
   13666 H6        -179.7747  -123.8637   286.1484 H6            1 RES     
   13667 H6        -181.1861  -122.4992   287.8050 H6            1 RES     
   13668 H6        -182.1614  -122.0448   286.3743 H6            1 RES     
   13669 H6        -179.8974  -121.1058   285.3865 H6            1 RES     
   13670 H6        -179.1087  -121.4850   286.8984 H6            1 RES     
   13671 H6        -179.7157  -119.0472   286.7382 H6            1 RES     
   13672 H6        -180.4446  -119.8274   288.1658 H6            1 RES     
   13673 H6        -182.5935  -120.0081   287.1150 H6            1 RES     
   13674 H6        -182.1249  -118.3173   287.0948 H6            1 RES     
   13675 H6        -181.3614  -119.8644   284.5621 H6            1 RES     
   13676 H6        -183.0844  -119.8375   284.9391 H6            1 RES     
   13677 H6        -183.1915  -117.4196   284.8904 H6            1 RES     
   13678 H6        -182.4821  -118.0947   283.3797 H6            1 RES     
   13679 H6        -180.1803  -117.4682   284.1842 H6            1 RES     
   13680 H6        -181.3011  -116.0607   284.0414 H6            1 RES     
   13681 H6        -180.9253  -116.7330   285.6674 H6            1 RES     
   13682 H6        -182.1564  -126.9447   284.9765 H6            1 RES     
   13683 H6        -182.8971  -125.4974   284.5075 H6            1 RES     
   13684 H6        -185.6675  -125.4599   285.7193 H6            1 RES     
   13685 H6        -186.3058  -126.9368   286.5214 H6            1 RES     
   13686 H6        -183.6232  -125.6858   287.4992 H6            1 RES     
   13687 H6        -184.0282  -126.6907   289.5642 H6            1 RES     
   13688 H6        -185.6947  -127.1521   289.1022 H6            1 RES     
   13689 H6        -184.1496  -129.0443   289.2353 H6            1 RES     
   13690 H6        -184.9166  -128.8747   287.6150 H6            1 RES     
   13691 H6        -182.8445  -128.1800   286.6286 H6            1 RES     
   13692 H6        -182.0613  -127.8461   288.1913 H6            1 RES     
   13693 H6        -181.1973  -129.8391   287.0121 H6            1 RES     
   13694 H6        -181.9700  -130.2237   288.5989 H6            1 RES     
   13695 H6        -184.0751  -130.8549   287.3735 H6            1 RES     
   13696 H6        -183.2480  -130.6141   285.7905 H6            1 RES     
   13697 H6        -181.6420  -132.4518   286.4161 H6            1 RES     
   13698 H6        -182.3462  -132.4787   288.0870 H6            1 RES     
   13699 H6        -183.8007  -133.1969   285.5153 H6            1 RES     
   13700 H6        -184.5973  -133.0522   287.1514 H6            1 RES     
   13701 H6        -182.4034  -135.0204   286.3267 H6            1 RES     
   13702 H6        -184.1554  -135.3705   286.6361 H6            1 RES     
   13703 H6        -183.0996  -134.8315   287.9989 H6            1 RES     
   13704 H6        -186.2665  -124.6767   288.4967 H6            1 RES     
   13705 H6        -185.2004  -123.9059   287.2840 H6            1 RES     
   13706 H6        -183.4061  -123.4515   288.8362 H6            1 RES     
   13707 H6        -184.9369  -122.6879   289.2000 H6            1 RES     
   13708 H6        -183.6582  -124.8902   290.9192 H6            1 RES     
   13709 H6        -183.8413  -123.1417   291.2250 H6            1 RES     
   13710 H6        -186.0665  -125.2189   290.9730 H6            1 RES     
   13711 H6        -186.3859  -123.4352   291.0621 H6            1 RES     
   13712 H6        -185.4774  -123.2623   293.3141 H6            1 RES     
   13713 H6        -184.8362  -124.9373   293.2567 H6            1 RES     
   13714 H6        -186.8914  -124.9303   294.6023 H6            1 RES     
   13715 H6        -187.0321  -125.9259   293.1303 H6            1 RES     
   13716 H6        -189.1285  -124.7944   293.4355 H6            1 RES     
   13717 H6        -188.3531  -124.1460   291.9838 H6            1 RES     
   13718 H6        -187.6413  -122.0963   293.2502 H6            1 RES     
   13719 H6        -189.4163  -122.3459   293.2395 H6            1 RES     
   13720 H6        -187.5257  -122.9589   295.6082 H6            1 RES     
   13721 H6        -188.6423  -121.5669   295.4379 H6            1 RES     
   13722 H6        -190.6123  -123.1183   295.4052 H6            1 RES     
   13723 H6        -189.4989  -124.5283   295.6387 H6            1 RES     
   13724 H6        -189.6301  -123.2742   296.9102 H6            1 RES     
   13725 C0        -194.3414  -137.3403   278.2334 C0            1 RES     
   13726 C0        -193.5163  -137.8089   279.8211 C0            1 RES     
   13727 C0        -194.3046  -137.3755   280.8796 C0            1 RES     
   13728 S1        -193.5749  -137.4283   282.4341 S1            1 RES     
   13729 C0        -192.0563  -138.0171   282.1144 C0            1 RES     
   13730 C0        -192.1691  -138.2225   280.5766 C0            1 RES     
   13731 C0        -195.3368  -136.4304   280.4518 C0            1 RES     
   13732 C0        -194.6849  -136.1049   279.1177 C0            1 RES     
   13733 C0        -193.9107  -134.9895   279.2087 C0            1 RES     
   13734 C0        -194.0031  -134.2927   280.4112 C0            1 RES     
   13735 S1        -195.1900  -134.9607   281.5451 S1            1 RES     
   13736 H2        -191.2625  -138.5192   280.0630 H2            1 RES     
   13737 H2        -193.1233  -134.7542   278.5115 H2            1 RES     
   13738 N3        -190.8050  -137.2817   285.8355 N3            1 RES     
   13739 C0        -191.4585  -137.3313   284.6647 C0            1 RES     
   13740 C0        -191.0404  -138.0848   283.4690 C0            1 RES     
   13741 C0        -189.7672  -138.7671   283.7817 C0            1 RES     
   13742 N3        -189.0619  -139.5597   282.9137 N3            1 RES     
   13743 S1        -187.7578  -140.0705   283.8158 S1            1 RES     
   13744 N3        -187.9755  -139.3358   285.2796 N3            1 RES     
   13745 C0        -189.1184  -138.6628   285.0908 C0            1 RES     
   13746 C0        -189.6340  -137.9149   286.1208 C0            1 RES     
   13747 H4        -192.3492  -136.7433   284.6567 H4            1 RES     
   13748 C5        -209.7422  -137.4551   266.4430 C5            1 RES     
   13749 C5        -208.5548  -137.6684   267.4244 C5            1 RES     
   13750 C5        -207.1544  -137.3668   266.7969 C5            1 RES     
   13751 C5        -205.8870  -137.2452   267.7752 C5            1 RES     
   13752 C5        -205.2342  -138.5295   268.4466 C5            1 RES     
   13753 C5        -204.0864  -138.4447   269.6518 C5            1 RES     
   13754 C5        -202.4822  -138.0720   269.5056 C5            1 RES     
   13755 C5        -201.1699  -138.3194   270.6443 C5            1 RES     
   13756 C5        -200.5273  -137.4042   271.9325 C5            1 RES     
   13757 C5        -199.2938  -137.5406   273.2378 C5            1 RES     
   13758 C5        -197.5487  -137.2798   273.4857 C5            1 RES     
   13759 C5        -197.0880  -137.5200   271.9353 C5            1 RES     
   13760 C5        -197.4695  -138.8634   271.1615 C5            1 RES     
   13761 C5        -197.4535  -138.7798   269.5738 C5            1 RES     
   13762 C5        -197.6507  -140.1442   268.8086 C5            1 RES     
   13763 C5        -196.7002  -141.2687   269.2747 C5            1 RES     
   13764 C5        -195.2007  -140.8858   269.2426 C5            1 RES     
   13765 C5        -194.3335  -141.6329   268.2227 C5            1 RES     
   13766 C5        -194.7526  -141.4445   266.7688 C5            1 RES     
   13767 C5        -196.2314  -137.1316   274.9497 C5            1 RES     
   13768 C0        -195.6610  -137.6217   276.7570 C0            1 RES     
   13769 C5        -196.1852  -139.0784   276.8363 C5            1 RES     
   13770 C5        -197.6358  -139.3539   276.2076 C5            1 RES     
   13771 C5        -198.7884  -139.0509   277.1804 C5            1 RES     
   13772 C5        -198.7870  -137.6732   277.8821 C5            1 RES     
   13773 C5        -198.6868  -136.4422   276.9550 C5            1 RES     
   13774 C5        -199.0272  -135.1149   277.6200 C5            1 RES     
   13775 C5        -198.1995  -134.8667   278.8815 C5            1 RES     
   13776 C5        -198.7397  -133.6636   279.6476 C5            1 RES     
   13777 C5        -198.1189  -133.6343   281.0377 C5            1 RES     
   13778 C5        -198.7489  -132.5959   281.9374 C5            1 RES     
   13779 C5        -197.7222  -140.7902   275.5876 C5            1 RES     
   13780 C5        -198.8240  -141.1887   274.5321 C5            1 RES     
   13781 C5        -200.3056  -141.4520   274.9161 C5            1 RES     
   13782 C5        -200.4403  -142.4801   276.0468 C5            1 RES     
   13783 C5        -201.8810  -143.0040   276.2427 C5            1 RES     
   13784 C5        -202.0479  -143.7309   277.5954 C5            1 RES     
   13785 C5        -201.1027  -144.9247   277.8451 C5            1 RES     
   13786 C5        -201.3297  -146.1492   276.9391 C5            1 RES     
   13787 C5        -202.7186  -146.8052   277.0698 C5            1 RES     
   13788 C5        -203.0241  -147.3072   278.4838 C5            1 RES     
   13789 H6        -209.7919  -136.4027   266.0813 H6            1 RES     
   13790 H6        -209.6919  -138.1252   265.5584 H6            1 RES     
   13791 H6        -210.7139  -137.6557   266.9551 H6            1 RES     
   13792 H6        -208.7345  -136.9717   268.2696 H6            1 RES     
   13793 H6        -208.5952  -138.7114   267.7986 H6            1 RES     
   13794 H6        -206.9748  -138.0706   265.9528 H6            1 RES     
   13795 H6        -207.2823  -136.3588   266.3348 H6            1 RES     
   13796 H6        -206.1935  -136.5377   268.5699 H6            1 RES     
   13797 H6        -205.0889  -136.7727   267.1681 H6            1 RES     
   13798 H6        -204.9067  -139.2086   267.6243 H6            1 RES     
   13799 H6        -206.1186  -139.0385   268.8992 H6            1 RES     
   13800 H6        -204.0849  -139.4985   270.0086 H6            1 RES     
   13801 H6        -204.5374  -137.8256   270.4463 H6            1 RES     
   13802 H6        -202.2320  -138.7592   268.6592 H6            1 RES     
   13803 H6        -202.4174  -137.0579   269.0603 H6            1 RES     
   13804 H6        -200.3364  -138.3958   269.9157 H6            1 RES     
   13805 H6        -201.3569  -139.3623   270.9791 H6            1 RES     
   13806 H6        -200.3732  -136.4049   271.4756 H6            1 RES     
   13807 H6        -201.4640  -137.3347   272.5220 H6            1 RES     
   13808 H6        -199.5347  -138.5169   273.6693 H6            1 RES     
   13809 H6        -199.7141  -136.8004   273.9315 H6            1 RES     
   13810 H6        -197.5715  -136.1724   273.3751 H6            1 RES     
   13811 H6        -196.0321  -137.2417   271.7451 H6            1 RES     
   13812 H6        -197.6730  -136.7702   271.3395 H6            1 RES     
   13813 H6        -198.4960  -139.2026   271.4042 H6            1 RES     
   13814 H6        -196.7614  -139.6333   271.5053 H6            1 RES     
   13815 H6        -196.5142  -138.3178   269.2268 H6            1 RES     
   13816 H6        -198.2462  -138.0918   269.1974 H6            1 RES     
   13817 H6        -197.5184  -139.9883   267.7105 H6            1 RES     
   13818 H6        -198.6931  -140.5156   268.9433 H6            1 RES     
   13819 H6        -196.9868  -141.4861   270.3223 H6            1 RES     
   13820 H6        -196.8821  -142.2266   268.7350 H6            1 RES     
   13821 H6        -195.0477  -139.8014   269.1150 H6            1 RES     
   13822 H6        -194.7792  -141.1339   270.2392 H6            1 RES     
   13823 H6        -194.3349  -142.7168   268.4625 H6            1 RES     
   13824 H6        -193.2940  -141.2531   268.3388 H6            1 RES     
   13825 H6        -194.7607  -140.3697   266.4932 H6            1 RES     
   13826 H6        -194.0203  -141.9728   266.1196 H6            1 RES     
   13827 H6        -195.7545  -141.8857   266.5904 H6            1 RES     
   13828 H6        -196.2057  -136.0233   275.0580 H6            1 RES     
   13829 H6        -195.2934  -137.2724   274.3721 H6            1 RES     
   13830 H6        -195.4213  -139.6328   276.2581 H6            1 RES     
   13831 H6        -196.1553  -139.4293   277.8866 H6            1 RES     
   13832 H6        -197.8239  -138.7435   275.3444 H6            1 RES     
   13833 H6        -199.7355  -139.1405   276.6196 H6            1 RES     
   13834 H6        -198.7859  -139.8192   277.9765 H6            1 RES     
   13835 H6        -199.7407  -137.6162   278.4470 H6            1 RES     
   13836 H6        -197.9477  -137.6553   278.6087 H6            1 RES     
   13837 H6        -197.6701  -136.3172   276.6386 H6            1 RES     
   13838 H6        -199.3404  -136.5642   276.0764 H6            1 RES     
   13839 H6        -198.8574  -134.2833   276.8972 H6            1 RES     
   13840 H6        -200.1044  -135.1487   277.8766 H6            1 RES     
   13841 H6        -198.3199  -135.7408   279.5489 H6            1 RES     
   13842 H6        -197.1172  -134.7488   278.6447 H6            1 RES     
   13843 H6        -198.5399  -132.7188   279.0952 H6            1 RES     
   13844 H6        -199.8353  -133.7941   279.7690 H6            1 RES     
   13845 H6        -197.0529  -133.3944   280.9279 H6            1 RES     
   13846 H6        -198.2577  -134.6283   281.5259 H6            1 RES     
   13847 H6        -198.5707  -131.5839   281.5234 H6            1 RES     
   13848 H6        -198.2858  -132.6734   282.9445 H6            1 RES     
   13849 H6        -199.8379  -132.7905   282.0282 H6            1 RES     
   13850 H6        -197.6541  -141.5525   276.3842 H6            1 RES     
   13851 H6        -196.7988  -140.8674   274.9698 H6            1 RES     
   13852 H6        -198.8008  -140.4954   273.6701 H6            1 RES     
   13853 H6        -198.4783  -142.1572   274.1098 H6            1 RES     
   13854 H6        -200.8483  -140.5204   275.1801 H6            1 RES     
   13855 H6        -200.8039  -141.8620   274.0043 H6            1 RES     
   13856 H6        -200.0911  -141.9785   276.9721 H6            1 RES     
   13857 H6        -199.7932  -143.3563   275.8299 H6            1 RES     
   13858 H6        -202.1681  -143.6680   275.3947 H6            1 RES     
   13859 H6        -202.5933  -142.1504   276.2529 H6            1 RES     
   13860 H6        -203.1035  -144.0517   277.7226 H6            1 RES     
   13861 H6        -201.8441  -142.9806   278.3895 H6            1 RES     
   13862 H6        -201.2115  -145.2401   278.9027 H6            1 RES     
   13863 H6        -200.0508  -144.5889   277.7376 H6            1 RES     
   13864 H6        -201.1659  -145.8603   275.8797 H6            1 RES     
   13865 H6        -200.5625  -146.9120   277.1998 H6            1 RES     
   13866 H6        -203.5116  -146.0984   276.7506 H6            1 RES     
   13867 H6        -202.7496  -147.6788   276.3828 H6            1 RES     
   13868 H6        -202.2511  -148.0333   278.8148 H6            1 RES     
   13869 H6        -203.0730  -146.4668   279.2061 H6            1 RES     
   13870 H6        -204.0122  -147.8137   278.4914 H6            1 RES     
   13871 C0        -187.2070  -135.3193   289.9086 C0            1 RES     
   13872 C0        -189.0353  -135.0398   289.9333 C0            1 RES     
   13873 C0        -189.6670  -136.2394   290.2358 C0            1 RES     
   13874 S1        -191.3686  -136.2756   290.0010 S1            1 RES     
   13875 C0        -191.7012  -134.7487   289.4415 C0            1 RES     
   13876 C0        -190.2729  -134.1338   289.4815 C0            1 RES     
   13877 C0        -188.7642  -137.3856   290.1226 C0            1 RES     
   13878 C0        -187.7163  -136.6579   289.2962 C0            1 RES     
   13879 C0        -187.9087  -136.8666   287.9653 C0            1 RES     
   13880 C0        -188.8812  -137.8096   287.6414 C0            1 RES     
   13881 S1        -189.6055  -138.6134   289.0449 S1            1 RES     
   13882 H2        -190.1656  -133.1389   289.0663 H2            1 RES     
   13883 H2        -187.5100  -136.2222   287.1990 H2            1 RES     
   13884 N3        -195.4695  -135.7184   288.5397 N3            1 RES     
   13885 C0        -194.1643  -135.7057   288.8508 C0            1 RES     
   13886 C0        -193.3223  -134.5068   289.0111 C0            1 RES     
   13887 C0        -194.1653  -133.3198   288.7566 C0            1 RES     
   13888 N3        -193.7335  -132.0196   288.8036 N3            1 RES     
   13889 S1        -195.1057  -131.1353   288.4710 S1            1 RES     
   13890 N3        -196.2692  -132.2834   288.2301 N3            1 RES     
   13891 C0        -195.5882  -133.4208   288.4238 C0            1 RES     
   13892 C0        -196.2436  -134.6223   288.3097 C0            1 RES     
   13893 H4        -193.7526  -136.6831   288.9705 H4            1 RES     
   13894 C5        -170.8719  -141.4631   298.3721 C5            1 RES     
   13895 C5        -172.2313  -140.8755   297.8974 C5            1 RES     
   13896 C5        -172.1049  -139.8794   296.6983 C5            1 RES     
   13897 C5        -173.4399  -139.4476   295.9175 C5            1 RES     
   13898 C5        -174.4833  -138.4355   296.5603 C5            1 RES     
   13899 C5        -175.9905  -138.1451   295.9115 C5            1 RES     
   13900 C5        -176.3701  -137.2306   294.5874 C5            1 RES     
   13901 C5        -177.9242  -136.5937   294.0783 C5            1 RES     
   13902 C5        -179.2043  -137.2035   293.1300 C5            1 RES     
   13903 C5        -180.8675  -136.7515   292.6072 C5            1 RES     
   13904 C5        -181.6774  -135.8140   291.3265 C5            1 RES     
   13905 C5        -180.4465  -134.7806   291.0258 C5            1 RES     
   13906 C5        -179.7978  -133.9097   292.1961 C5            1 RES     
   13907 C5        -178.3259  -133.3711   291.9280 C5            1 RES     
   13908 C5        -177.7538  -132.3641   292.9980 C5            1 RES     
   13909 C5        -178.6897  -131.1745   293.3042 C5            1 RES     
   13910 C5        -179.1358  -130.3797   292.0531 C5            1 RES     
   13911 C5        -178.6146  -128.9420   291.9436 C5            1 RES     
   13912 C5        -177.0960  -128.8160   291.8896 C5            1 RES     
   13913 C5        -183.4744  -135.5424   290.5531 C5            1 RES     
   13914 C0        -185.4178  -135.5038   290.7833 C0            1 RES     
   13915 C5        -185.5224  -134.9707   292.2353 C5            1 RES     
   13916 C5        -184.4680  -135.5584   293.2928 C5            1 RES     
   13917 C5        -184.9107  -136.8933   293.9161 C5            1 RES     
   13918 C5        -185.3527  -138.0192   292.9532 C5            1 RES     
   13919 C5        -184.3489  -138.3895   291.8396 C5            1 RES     
   13920 C5        -184.6432  -139.7038   291.1284 C5            1 RES     
   13921 C5        -186.0642  -139.7561   290.5663 C5            1 RES     
   13922 C5        -186.3993  -141.1655   290.0892 C5            1 RES     
   13923 C5        -187.8981  -141.2679   289.8413 C5            1 RES     
   13924 C5        -188.3492  -142.6835   289.5632 C5            1 RES     
   13925 C5        -184.0798  -134.4833   294.3644 C5            1 RES     
   13926 C5        -182.7739  -134.5989   295.2408 C5            1 RES     
   13927 C5        -182.6410  -135.5856   296.4327 C5            1 RES     
   13928 C5        -183.7900  -135.4416   297.4389 C5            1 RES     
   13929 C5        -183.5371  -136.1669   298.7799 C5            1 RES     
   13930 C5        -184.8345  -136.3164   299.6047 C5            1 RES     
   13931 C5        -185.5793  -135.0074   299.9407 C5            1 RES     
   13932 C5        -184.8457  -134.0577   300.9060 C5            1 RES     
   13933 C5        -184.5707  -134.6404   302.3064 C5            1 RES     
   13934 C5        -185.8418  -135.0491   303.0561 C5            1 RES     
   13935 H6        -170.3632  -142.0297   297.5590 H6            1 RES     
   13936 H6        -170.1737  -140.6820   298.7414 H6            1 RES     
   13937 H6        -171.0291  -142.1877   299.2068 H6            1 RES     
   13938 H6        -172.8431  -141.7475   297.5854 H6            1 RES     
   13939 H6        -172.7181  -140.3810   298.7622 H6            1 RES     
   13940 H6        -171.4952  -139.0034   297.0158 H6            1 RES     
   13941 H6        -171.4825  -140.4347   295.9566 H6            1 RES     
   13942 H6        -173.9584  -140.3946   295.6720 H6            1 RES     
   13943 H6        -173.0928  -138.9786   294.9750 H6            1 RES     
   13944 H6        -173.9424  -137.4820   296.7675 H6            1 RES     
   13945 H6        -174.6627  -138.8839   297.5668 H6            1 RES     
   13946 H6        -176.4778  -137.6088   296.7558 H6            1 RES     
   13947 H6        -176.4709  -139.1350   295.8254 H6            1 RES     
   13948 H6        -175.7807  -136.3160   294.8470 H6            1 RES     
   13949 H6        -175.8307  -137.6642   293.7203 H6            1 RES     
   13950 H6        -177.5595  -135.7092   293.5158 H6            1 RES     
   13951 H6        -178.3224  -136.1849   295.0317 H6            1 RES     
   13952 H6        -178.6882  -137.5625   292.2158 H6            1 RES     
   13953 H6        -179.4050  -138.1033   293.7466 H6            1 RES     
   13954 H6        -181.3259  -136.4571   293.5561 H6            1 RES     
   13955 H6        -181.2476  -137.7600   292.3970 H6            1 RES     
   13956 H6        -181.4018  -136.4887   290.4852 H6            1 RES     
   13957 H6        -180.6048  -134.1650   290.1176 H6            1 RES     
   13958 H6        -179.5769  -135.4363   290.7555 H6            1 RES     
   13959 H6        -179.7076  -134.4858   293.1383 H6            1 RES     
   13960 H6        -180.4818  -133.0650   292.3723 H6            1 RES     
   13961 H6        -178.2707  -132.8941   290.9353 H6            1 RES     
   13962 H6        -177.5941  -134.2099   291.8641 H6            1 RES     
   13963 H6        -176.7643  -131.9707   292.6606 H6            1 RES     
   13964 H6        -177.5631  -132.8913   293.9615 H6            1 RES     
   13965 H6        -179.5869  -131.6161   293.7806 H6            1 RES     
   13966 H6        -178.2702  -130.4963   294.0828 H6            1 RES     
   13967 H6        -178.9104  -130.9135   291.1151 H6            1 RES     
   13968 H6        -180.2422  -130.2992   292.0951 H6            1 RES     
   13969 H6        -178.9973  -128.3459   292.7983 H6            1 RES     
   13970 H6        -179.0344  -128.5139   291.0062 H6            1 RES     
   13971 H6        -176.6782  -129.3998   291.0436 H6            1 RES     
   13972 H6        -176.8362  -127.7443   291.7451 H6            1 RES     
   13973 H6        -176.6412  -129.1569   292.8422 H6            1 RES     
   13974 H6        -183.4177  -136.2647   289.7069 H6            1 RES     
   13975 H6        -183.2957  -134.6012   289.9915 H6            1 RES     
   13976 H6        -185.3432  -133.8870   292.0992 H6            1 RES     
   13977 H6        -186.5546  -135.1127   292.6116 H6            1 RES     
   13978 H6        -183.5134  -135.7570   292.8427 H6            1 RES     
   13979 H6        -184.0700  -137.2791   294.5195 H6            1 RES     
   13980 H6        -185.7609  -136.6973   294.5964 H6            1 RES     
   13981 H6        -185.5265  -138.9136   293.5870 H6            1 RES     
   13982 H6        -186.3187  -137.7225   292.4934 H6            1 RES     
   13983 H6        -184.3996  -137.6579   291.0575 H6            1 RES     
   13984 H6        -183.3242  -138.4380   292.2415 H6            1 RES     
   13985 H6        -183.9123  -139.8489   290.2991 H6            1 RES     
   13986 H6        -184.5021  -140.5126   291.8722 H6            1 RES     
   13987 H6        -186.7678  -139.5302   291.3896 H6            1 RES     
   13988 H6        -186.2127  -139.0042   289.7576 H6            1 RES     
   13989 H6        -185.8194  -141.4238   289.1757 H6            1 RES     
   13990 H6        -186.1414  -141.8763   290.9019 H6            1 RES     
   13991 H6        -188.1398  -140.6507   288.9657 H6            1 RES     
   13992 H6        -188.4479  -140.9133   290.7456 H6            1 RES     
   13993 H6        -187.8793  -143.0496   288.6292 H6            1 RES     
   13994 H6        -189.4546  -142.6862   289.4501 H6            1 RES     
   13995 H6        -188.0750  -143.3381   290.4166 H6            1 RES     
   13996 H6        -184.9529  -134.2465   294.9983 H6            1 RES     
   13997 H6        -183.8495  -133.5776   293.7588 H6            1 RES     
   13998 H6        -181.8832  -134.7058   294.5933 H6            1 RES     
   13999 H6        -182.6518  -133.5963   295.7054 H6            1 RES     
   14000 H6        -182.5525  -136.6416   296.1023 H6            1 RES     
   14001 H6        -181.6839  -135.3339   296.9507 H6            1 RES     
   14002 H6        -184.6930  -135.8580   296.9480 H6            1 RES     
   14003 H6        -183.9509  -134.3664   297.6663 H6            1 RES     
   14004 H6        -182.7519  -135.6337   299.3642 H6            1 RES     
   14005 H6        -183.1658  -137.1969   298.5861 H6            1 RES     
   14006 H6        -184.6247  -136.8817   300.5373 H6            1 RES     
   14007 H6        -185.5275  -136.9414   299.0013 H6            1 RES     
   14008 H6        -186.5636  -135.2692   300.3794 H6            1 RES     
   14009 H6        -185.8037  -134.4612   299.0015 H6            1 RES     
   14010 H6        -183.8832  -133.7410   300.4521 H6            1 RES     
   14011 H6        -185.4729  -133.1468   301.0289 H6            1 RES     
   14012 H6        -183.8887  -135.5123   302.2353 H6            1 RES     
   14013 H6        -184.0564  -133.8585   302.9066 H6            1 RES     
   14014 H6        -186.5305  -134.1831   303.1560 H6            1 RES     
   14015 H6        -186.3653  -135.8775   302.5364 H6            1 RES     
   14016 H6        -185.5734  -135.4073   304.0722 H6            1 RES     
   14017 C0        -200.2131  -135.9881   285.2516 C0            1 RES     
   14018 C0        -199.5444  -137.4234   286.2076 C0            1 RES     
   14019 C0        -199.7783  -137.2079   287.5598 C0            1 RES     
   14020 S1        -198.9623  -138.2622   288.6435 S1            1 RES     
   14021 C0        -198.0996  -139.2497   287.6257 C0            1 RES     
   14022 C0        -198.5522  -138.6765   286.2522 C0            1 RES     
   14023 C0        -200.1660  -135.8253   287.8422 C0            1 RES     
   14024 C0        -199.6672  -135.2665   286.5195 C0            1 RES     
   14025 C0        -198.4019  -134.7796   286.6381 C0            1 RES     
   14026 C0        -197.8984  -134.7302   287.9357 C0            1 RES     
   14027 S1        -199.0561  -135.2306   289.1806 S1            1 RES     
   14028 H2        -198.0586  -139.0798   285.3762 H2            1 RES     
   14029 H2        -197.7403  -134.6341   285.7999 H2            1 RES     
   14030 N3        -196.0733  -140.8831   290.6554 N3            1 RES     
   14031 C0        -196.8223  -140.1127   289.8517 C0            1 RES     
   14032 C0        -197.0902  -140.3532   288.4226 C0            1 RES     
   14033 C0        -196.3784  -141.5862   288.0260 C0            1 RES     
   14034 N3        -196.3809  -142.1297   286.7676 N3            1 RES     
   14035 S1        -195.4542  -143.5047   286.9290 S1            1 RES     
   14036 N3        -194.9900  -143.4866   288.5147 N3            1 RES     
   14037 C0        -195.5807  -142.3733   288.9693 C0            1 RES     
   14038 C0        -195.4221  -142.0206   290.2870 C0            1 RES     
   14039 H4        -197.2251  -139.2575   290.3473 H4            1 RES     
   14040 C5        -214.7460  -124.0353   280.5458 C5            1 RES     
   14041 C5        -213.7370  -125.1622   280.9075 C5            1 RES     
   14042 C5        -212.5267  -125.2668   279.9225 C5            1 RES     
   14043 C5        -211.2672  -126.1666   280.3497 C5            1 RES     
   14044 C5        -211.3383  -127.7542   280.3237 C5            1 RES     
   14045 C5        -210.1606  -128.7307   280.9844 C5            1 RES     
   14046 C5        -208.6673  -129.0837   280.3688 C5            1 RES     
   14047 C5        -207.5500  -130.3623   280.8128 C5            1 RES     
   14048 C5        -206.3112  -130.5053   281.9768 C5            1 RES     
   14049 C5        -205.1701  -131.7366   282.6294 C5            1 RES     
   14050 C5        -203.5606  -132.4142   282.2760 C5            1 RES     
   14051 C5        -203.5661  -132.1158   280.6683 C5            1 RES     
   14052 C5        -204.7464  -132.6505   279.7355 C5            1 RES     
   14053 C5        -204.9416  -131.8866   278.3547 C5            1 RES     
   14054 C5        -205.9817  -132.5228   277.3549 C5            1 RES     
   14055 C5        -205.7538  -134.0261   277.0842 C5            1 RES     
   14056 C5        -204.3221  -134.3758   276.6110 C5            1 RES     
   14057 C5        -204.1915  -134.8877   275.1717 C5            1 RES     
   14058 C5        -204.6625  -133.9096   274.1011 C5            1 RES     
   14059 C5        -202.1677  -133.5313   283.1204 C5            1 RES     
   14060 C0        -201.6837  -134.9683   284.3582 C0            1 RES     
   14061 C5        -202.9065  -135.9074   284.1972 C5            1 RES     
   14062 C5        -204.3448  -135.2020   284.1013 C5            1 RES     
   14063 C5        -204.9622  -134.8892   285.4751 C5            1 RES     
   14064 C5        -204.0848  -134.1280   286.4956 C5            1 RES     
   14065 C5        -203.4695  -132.8007   286.0009 C5            1 RES     
   14066 C5        -202.9050  -131.9116   287.1012 C5            1 RES     
   14067 C5        -201.8892  -132.6444   287.9782 C5            1 RES     
   14068 C5        -201.5406  -131.8086   289.2055 C5            1 RES     
   14069 C5        -200.7945  -132.6778   290.2086 C5            1 RES     
   14070 C5        -200.5891  -131.9901   291.5389 C5            1 RES     
   14071 C5        -205.3109  -136.0077   283.1672 C5            1 RES     
   14072 C5        -206.6009  -135.3625   282.5298 C5            1 RES     
   14073 C5        -207.8954  -135.0840   283.3415 C5            1 RES     
   14074 C5        -208.3940  -136.3283   284.0876 C5            1 RES     
   14075 C5        -209.8295  -136.1874   284.6421 C5            1 RES     
   14076 C5        -210.1519  -137.2814   285.6839 C5            1 RES     
   14077 C5        -210.0015  -138.7403   285.2042 C5            1 RES     
   14078 C5        -211.0110  -139.1917   284.1322 C5            1 RES     
   14079 C5        -212.4880  -139.1476   284.5715 C5            1 RES     
   14080 C5        -212.7890  -140.0324   285.7845 C5            1 RES     
   14081 H6        -214.2612  -123.0324   280.5529 H6            1 RES     
   14082 H6        -215.2181  -124.1866   279.5517 H6            1 RES     
   14083 H6        -215.5686  -123.9902   281.2994 H6            1 RES     
   14084 H6        -213.3620  -124.9155   281.9226 H6            1 RES     
   14085 H6        -214.2880  -126.1235   280.9476 H6            1 RES     
   14086 H6        -212.9054  -125.5194   278.9063 H6            1 RES     
   14087 H6        -212.1465  -124.2193   279.8573 H6            1 RES     
   14088 H6        -210.9980  -125.8330   281.3705 H6            1 RES     
   14089 H6        -210.4509  -125.8810   279.6563 H6            1 RES     
   14090 H6        -211.5791  -128.0626   279.2790 H6            1 RES     
   14091 H6        -212.2702  -127.9615   280.9024 H6            1 RES     
   14092 H6        -210.6862  -129.7112   280.9905 H6            1 RES     
   14093 H6        -210.0584  -128.4022   282.0331 H6            1 RES     
   14094 H6        -208.9796  -129.3536   279.3291 H6            1 RES     
   14095 H6        -208.1236  -128.1242   280.2486 H6            1 RES     
   14096 H6        -207.0284  -130.4661   279.8387 H6            1 RES     
   14097 H6        -208.2271  -131.2413   280.8725 H6            1 RES     
   14098 H6        -205.7048  -129.5915   281.8089 H6            1 RES     
   14099 H6        -206.9433  -130.2995   282.8646 H6            1 RES     
   14100 H6        -205.8388  -132.5829   282.8138 H6            1 RES     
   14101 H6        -204.9919  -131.2824   283.6130 H6            1 RES     
   14102 H6        -202.9831  -131.4920   282.5105 H6            1 RES     
   14103 H6        -202.5799  -132.2808   280.1899 H6            1 RES     
   14104 H6        -203.7237  -131.0083   280.5796 H6            1 RES     
   14105 H6        -205.7338  -132.5693   280.2315 H6            1 RES     
   14106 H6        -204.5396  -133.7160   279.5507 H6            1 RES     
   14107 H6        -203.9740  -131.7872   277.8351 H6            1 RES     
   14108 H6        -205.2680  -130.8331   278.5183 H6            1 RES     
   14109 H6        -205.9632  -131.9717   276.3835 H6            1 RES     
   14110 H6        -207.0172  -132.4118   277.7523 H6            1 RES     
   14111 H6        -205.9405  -134.5346   278.0504 H6            1 RES     
   14112 H6        -206.5200  -134.4525   276.3962 H6            1 RES     
   14113 H6        -203.6165  -133.5415   276.7585 H6            1 RES     
   14114 H6        -203.9556  -135.1982   277.2603 H6            1 RES     
   14115 H6        -204.7550  -135.8384   275.0669 H6            1 RES     
   14116 H6        -203.1134  -135.1024   274.9990 H6            1 RES     
   14117 H6        -204.1176  -132.9459   274.1752 H6            1 RES     
   14118 H6        -204.4613  -134.3562   273.1027 H6            1 RES     
   14119 H6        -205.7540  -133.7316   274.1870 H6            1 RES     
   14120 H6        -201.5150  -132.7269   283.5301 H6            1 RES     
   14121 H6        -201.5723  -133.7985   282.2218 H6            1 RES     
   14122 H6        -202.6827  -136.4198   283.2419 H6            1 RES     
   14123 H6        -202.9082  -136.6608   285.0092 H6            1 RES     
   14124 H6        -204.2986  -134.2595   283.5886 H6            1 RES     
   14125 H6        -205.8753  -134.2914   285.3064 H6            1 RES     
   14126 H6        -205.2584  -135.8429   285.9514 H6            1 RES     
   14127 H6        -204.7416  -133.9134   287.3642 H6            1 RES     
   14128 H6        -203.2730  -134.8076   286.8295 H6            1 RES     
   14129 H6        -202.6205  -133.0117   285.3810 H6            1 RES     
   14130 H6        -204.2117  -132.2166   285.4337 H6            1 RES     
   14131 H6        -202.4213  -131.0172   286.6441 H6            1 RES     
   14132 H6        -203.7624  -131.5762   287.7175 H6            1 RES     
   14133 H6        -202.3650  -133.5690   288.3557 H6            1 RES     
   14134 H6        -200.9779  -132.9252   287.4020 H6            1 RES     
   14135 H6        -200.9424  -130.9150   288.9204 H6            1 RES     
   14136 H6        -202.4883  -131.4803   289.6811 H6            1 RES     
   14137 H6        -199.8084  -132.9128   289.7861 H6            1 RES     
   14138 H6        -201.3805  -133.6082   290.4001 H6            1 RES     
   14139 H6        -199.9490  -131.0961   291.4035 H6            1 RES     
   14140 H6        -200.0923  -132.7026   292.2319 H6            1 RES     
   14141 H6        -201.5718  -131.7011   291.9664 H6            1 RES     
   14142 H6        -205.5501  -136.9859   283.6213 H6            1 RES     
   14143 H6        -204.6986  -136.2010   282.2573 H6            1 RES     
   14144 H6        -206.3360  -134.4493   281.9640 H6            1 RES     
   14145 H6        -206.9232  -136.0823   281.7462 H6            1 RES     
   14146 H6        -207.7798  -134.2356   284.0478 H6            1 RES     
   14147 H6        -208.6759  -134.7782   282.6031 H6            1 RES     
   14148 H6        -207.6823  -136.5029   284.9199 H6            1 RES     
   14149 H6        -208.3859  -137.2006   283.4001 H6            1 RES     
   14150 H6        -210.5681  -136.2012   283.8074 H6            1 RES     
   14151 H6        -209.9366  -135.2121   285.1651 H6            1 RES     
   14152 H6        -211.1714  -137.1218   286.0943 H6            1 RES     
   14153 H6        -209.4422  -137.1396   286.5273 H6            1 RES     
   14154 H6        -210.0956  -139.4081   286.0846 H6            1 RES     
   14155 H6        -208.9735  -138.8954   284.8169 H6            1 RES     
   14156 H6        -210.8869  -138.5680   283.2221 H6            1 RES     
   14157 H6        -210.7654  -140.2408   283.8543 H6            1 RES     
   14158 H6        -212.7950  -138.1046   284.7912 H6            1 RES     
   14159 H6        -213.1077  -139.5095   283.7224 H6            1 RES     
   14160 H6        -212.5071  -141.0867   285.5771 H6            1 RES     
   14161 H6        -212.2473  -139.6768   286.6848 H6            1 RES     
   14162 H6        -213.8755  -139.9941   286.0102 H6            1 RES     
   14163 C0        -191.3937  -142.7530   293.4825 C0            1 RES     
   14164 C0        -192.7280  -141.7387   294.2648 C0            1 RES     
   14165 C0        -193.8604  -142.5290   294.4155 C0            1 RES     
   14166 S1        -195.3078  -141.7014   294.8299 S1            1 RES     
   14167 C0        -194.8229  -140.1158   294.9064 C0            1 RES     
   14168 C0        -193.3091  -140.2851   294.5909 C0            1 RES     
   14169 C0        -193.7765  -143.7708   293.6456 C0            1 RES     
   14170 C0        -192.6499  -143.2992   292.7407 C0            1 RES     
   14171 C0        -193.1362  -142.7853   291.5783 C0            1 RES     
   14172 C0        -194.5050  -142.9468   291.3784 C0            1 RES     
   14173 S1        -195.3170  -143.8772   292.6494 S1            1 RES     
   14174 H2        -192.7366  -139.3726   294.4758 H2            1 RES     
   14175 H2        -192.5762  -142.1186   290.9432 H2            1 RES     
   14176 N3        -198.5827  -138.8065   295.2276 N3            1 RES     
   14177 C0        -197.4598  -139.5113   295.0209 C0            1 RES     
   14178 C0        -196.0819  -139.0200   295.1997 C0            1 RES     
   14179 C0        -196.1531  -137.6095   295.6353 C0            1 RES     
   14180 N3        -195.0724  -136.8078   295.8962 N3            1 RES     
   14181 S1        -195.7562  -135.3647   296.3710 S1            1 RES     
   14182 N3        -197.3815  -135.6386   296.2553 N3            1 RES     
   14183 C0        -197.4247  -136.9119   295.8408 C0            1 RES     
   14184 C0        -198.6442  -137.5081   295.6326 C0            1 RES     
   14185 H4        -197.6461  -140.5081   294.6879 H4            1 RES     
   14186 C5        -180.1005  -158.5174   293.0806 C5            1 RES     
   14187 C5        -180.9612  -157.2481   293.3387 C5            1 RES     
   14188 C5        -180.4982  -155.9946   292.5260 C5            1 RES     
   14189 C5        -181.4744  -154.7214   292.4598 C5            1 RES     
   14190 C5        -181.6625  -153.7575   293.7095 C5            1 RES     
   14191 C5        -182.8366  -152.5772   293.7822 C5            1 RES     
   14192 C5        -182.8520  -151.1083   293.0233 C5            1 RES     
   14193 C5        -183.8498  -149.6993   293.3379 C5            1 RES     
   14194 C5        -185.3855  -149.1877   292.7993 C5            1 RES     
   14195 C5        -186.5772  -147.8685   293.0882 C5            1 RES     
   14196 C5        -186.9244  -146.2110   292.5342 C5            1 RES     
   14197 C5        -185.3945  -145.8155   292.1140 C5            1 RES     
   14198 C5        -184.1942  -145.9434   293.1590 C5            1 RES     
   14199 C5        -182.7366  -146.0546   292.5335 C5            1 RES     
   14200 C5        -181.5395  -145.9981   293.5582 C5            1 RES     
   14201 C5        -181.5954  -144.7937   294.5232 C5            1 RES     
   14202 C5        -181.7199  -143.4211   293.8185 C5            1 RES     
   14203 C5        -180.5148  -142.4823   293.9485 C5            1 RES     
   14204 C5        -179.2134  -143.0307   293.3738 C5            1 RES     
   14205 C5        -188.3655  -144.8619   292.5992 C5            1 RES     
   14206 C0        -189.8944  -144.0758   293.5351 C0            1 RES     
   14207 C5        -189.4516  -144.2595   295.0093 C5            1 RES     
   14208 C5        -188.7465  -145.6532   295.3780 C5            1 RES     
   14209 C5        -189.7480  -146.7751   295.7018 C5            1 RES     
   14210 C5        -190.8876  -147.0294   294.6883 C5            1 RES     
   14211 C5        -190.4515  -147.2664   293.2259 C5            1 RES     
   14212 C5        -191.5345  -147.8446   292.3244 C5            1 RES     
   14213 C5        -192.8142  -147.0079   292.3414 C5            1 RES     
   14214 C5        -193.9456  -147.7463   291.6336 C5            1 RES     
   14215 C5        -195.2663  -147.0540   291.9418 C5            1 RES     
   14216 C5        -196.4639  -147.8344   291.4506 C5            1 RES     
   14217 C5        -187.6617  -145.4630   296.4925 C5            1 RES     
   14218 C5        -186.5187  -146.5194   296.7462 C5            1 RES     
   14219 C5        -186.7659  -147.8769   297.4589 C5            1 RES     
   14220 C5        -187.4631  -147.7043   298.8146 C5            1 RES     
   14221 C5        -187.4436  -148.9774   299.6905 C5            1 RES     
   14222 C5        -188.4538  -148.8875   300.8556 C5            1 RES     
   14223 C5        -188.2826  -147.6876   301.8107 C5            1 RES     
   14224 C5        -187.0022  -147.7005   302.6665 C5            1 RES     
   14225 C5        -186.8760  -148.8985   303.6284 C5            1 RES     
   14226 C5        -188.0205  -148.9888   304.6417 C5            1 RES     
   14227 H6        -180.1295  -158.8222   292.0095 H6            1 RES     
   14228 H6        -179.0381  -158.3811   293.3750 H6            1 RES     
   14229 H6        -180.4967  -159.3837   293.6629 H6            1 RES     
   14230 H6        -181.9943  -157.5187   293.0362 H6            1 RES     
   14231 H6        -180.9461  -157.0320   294.4261 H6            1 RES     
   14232 H6        -179.4637  -155.7224   292.8354 H6            1 RES     
   14233 H6        -180.4166  -156.3727   291.4789 H6            1 RES     
   14234 H6        -182.4622  -155.1214   292.1593 H6            1 RES     
   14235 H6        -181.0821  -154.0904   291.6372 H6            1 RES     
   14236 H6        -180.6590  -153.3454   293.9698 H6            1 RES     
   14237 H6        -181.8961  -154.4751   294.5321 H6            1 RES     
   14238 H6        -182.8019  -152.3192   294.8639 H6            1 RES     
   14239 H6        -183.7914  -153.0983   293.5955 H6            1 RES     
   14240 H6        -181.8221  -150.7712   293.3005 H6            1 RES     
   14241 H6        -182.7909  -151.2990   291.9322 H6            1 RES     
   14242 H6        -183.1520  -148.9210   292.9651 H6            1 RES     
   14243 H6        -183.7957  -149.6286   294.4454 H6            1 RES     
   14244 H6        -185.3095  -149.2891   291.6970 H6            1 RES     
   14245 H6        -185.9493  -150.0743   293.1543 H6            1 RES     
   14246 H6        -186.6362  -147.8583   294.1808 H6            1 RES     
   14247 H6        -187.4803  -148.3932   292.7494 H6            1 RES     
   14248 H6        -187.2082  -146.4846   291.4932 H6            1 RES     
   14249 H6        -185.3282  -144.8623   291.5522 H6            1 RES     
   14250 H6        -185.0910  -146.5905   291.3613 H6            1 RES     
   14251 H6        -184.2888  -146.8510   293.7875 H6            1 RES     
   14252 H6        -184.2564  -145.0614   293.8150 H6            1 RES     
   14253 H6        -182.5862  -145.2660   291.7774 H6            1 RES     
   14254 H6        -182.6141  -147.0032   291.9603 H6            1 RES     
   14255 H6        -180.5675  -145.9785   293.0084 H6            1 RES     
   14256 H6        -181.5216  -146.9214   294.1825 H6            1 RES     
   14257 H6        -182.4966  -144.9533   295.1472 H6            1 RES     
   14258 H6        -180.7521  -144.7964   295.2518 H6            1 RES     
   14259 H6        -181.9821  -143.5198   292.7521 H6            1 RES     
   14260 H6        -182.5721  -142.8884   294.2898 H6            1 RES     
   14261 H6        -180.3599  -142.2285   295.0180 H6            1 RES     
   14262 H6        -180.7707  -141.5465   293.4033 H6            1 RES     
   14263 H6        -179.3314  -143.2942   292.3024 H6            1 RES     
   14264 H6        -178.4304  -142.2460   293.4631 H6            1 RES     
   14265 H6        -178.8782  -143.9206   293.9448 H6            1 RES     
   14266 H6        -188.8553  -145.0737   291.6213 H6            1 RES     
   14267 H6        -187.7880  -143.9576   292.3128 H6            1 RES     
   14268 H6        -188.7263  -143.4335   295.1394 H6            1 RES     
   14269 H6        -190.3128  -144.0815   295.6828 H6            1 RES     
   14270 H6        -188.1491  -146.0295   294.5689 H6            1 RES     
   14271 H6        -189.1785  -147.7152   295.8086 H6            1 RES     
   14272 H6        -190.2247  -146.5492   296.6743 H6            1 RES     
   14273 H6        -191.4236  -147.9314   295.0501 H6            1 RES     
   14274 H6        -191.5858  -146.1671   294.7285 H6            1 RES     
   14275 H6        -190.2128  -146.3262   292.7692 H6            1 RES     
   14276 H6        -189.5771  -147.9354   293.1855 H6            1 RES     
   14277 H6        -191.1509  -147.9119   291.2797 H6            1 RES     
   14278 H6        -191.7482  -148.8678   292.6913 H6            1 RES     
   14279 H6        -193.1316  -146.8870   293.3943 H6            1 RES     
   14280 H6        -192.6484  -145.9969   291.9035 H6            1 RES     
   14281 H6        -193.7616  -147.7977   290.5377 H6            1 RES     
   14282 H6        -193.9986  -148.7754   292.0464 H6            1 RES     
   14283 H6        -195.2619  -146.0770   291.4402 H6            1 RES     
   14284 H6        -195.3736  -146.9368   293.0465 H6            1 RES     
   14285 H6        -196.4328  -147.9121   290.3460 H6            1 RES     
   14286 H6        -197.3863  -147.2980   291.7607 H6            1 RES     
   14287 H6        -196.4659  -148.8450   291.9097 H6            1 RES     
   14288 H6        -188.1419  -145.1746   297.4445 H6            1 RES     
   14289 H6        -187.0687  -144.5897   296.1378 H6            1 RES     
   14290 H6        -185.9543  -146.7083   295.8135 H6            1 RES     
   14291 H6        -185.7887  -145.9984   297.4032 H6            1 RES     
   14292 H6        -187.3319  -148.5921   296.8264 H6            1 RES     
   14293 H6        -185.7616  -148.3336   297.6336 H6            1 RES     
   14294 H6        -188.5102  -147.4119   298.5955 H6            1 RES     
   14295 H6        -186.9621  -146.8964   299.3888 H6            1 RES     
   14296 H6        -186.4130  -149.1683   300.0697 H6            1 RES     
   14297 H6        -187.7423  -149.8579   299.0809 H6            1 RES     
   14298 H6        -188.4462  -149.8352   301.4344 H6            1 RES     
   14299 H6        -189.4630  -148.8003   300.3985 H6            1 RES     
   14300 H6        -189.1613  -147.6520   302.4864 H6            1 RES     
   14301 H6        -188.3138  -146.7454   301.2259 H6            1 RES     
   14302 H6        -186.1133  -147.6770   302.0016 H6            1 RES     
   14303 H6        -186.9898  -146.7682   303.2739 H6            1 RES     
   14304 H6        -186.8137  -149.8477   303.0577 H6            1 RES     
   14305 H6        -185.9264  -148.7831   304.1948 H6            1 RES     
   14306 H6        -188.0869  -148.0542   305.2385 H6            1 RES     
   14307 H6        -188.9906  -149.1723   304.1361 H6            1 RES     
   14308 H6        -187.8368  -149.8382   305.3329 H6            1 RES     
   14309 C0        -203.1337  -135.4601   294.0124 C0            1 RES     
   14310 C0        -203.2298  -137.2990   294.1873 C0            1 RES     
   14311 C0        -203.0845  -137.6288   295.5289 C0            1 RES     
   14312 S1        -202.8287  -139.2925   295.8729 S1            1 RES     
   14313 C0        -202.8347  -139.9907   294.3670 C0            1 RES     
   14314 C0        -203.1069  -138.7337   293.4921 C0            1 RES     
   14315 C0        -202.5895  -136.5055   296.3257 C0            1 RES     
   14316 C0        -202.0845  -135.7025   295.1380 C0            1 RES     
   14317 C0        -200.7623  -135.9345   294.9149 C0            1 RES     
   14318 C0        -200.1156  -136.6951   295.8860 C0            1 RES     
   14319 S1        -201.1388  -137.1271   297.2669 S1            1 RES     
   14320 H2        -203.0678  -138.8767   292.4189 H2            1 RES     
   14321 H2        -200.2757  -135.7408   293.9730 H2            1 RES     
   14322 N3        -201.5992  -143.5053   295.8075 N3            1 RES     
   14323 C0        -201.9129  -142.2169   295.6024 C0            1 RES     
   14324 C0        -202.4942  -141.6508   294.3721 C0            1 RES     
   14325 C0        -202.6599  -142.7498   293.3980 C0            1 RES     
   14326 N3        -203.1650  -142.6130   292.1310 N3            1 RES     
   14327 S1        -203.1443  -144.1656   291.5275 S1            1 RES     
   14328 N3        -202.5009  -145.0613   292.7579 N3            1 RES     
   14329 C0        -202.2934  -144.1348   293.7032 C0            1 RES     
   14330 C0        -201.7570  -144.5157   294.9087 C0            1 RES     
   14331 H4        -201.6884  -141.5927   296.4386 H4            1 RES     
   14332 C5        -209.1325  -117.6347   298.7540 C5            1 RES     
   14333 C5        -208.8750  -119.1192   298.3689 C5            1 RES     
   14334 C5        -208.1024  -119.2975   297.0208 C5            1 RES     
   14335 C5        -207.5041  -120.7449   296.6666 C5            1 RES     
   14336 C5        -208.4463  -121.9393   296.2063 C5            1 RES     
   14337 C5        -207.9197  -123.5141   296.0660 C5            1 RES     
   14338 C5        -206.9945  -124.1752   294.8657 C5            1 RES     
   14339 C5        -206.7195  -125.8624   294.4686 C5            1 RES     
   14340 C5        -205.6003  -127.0384   294.9927 C5            1 RES     
   14341 C5        -205.2462  -128.7920   294.7843 C5            1 RES     
   14342 C5        -204.3639  -129.8739   293.6772 C5            1 RES     
   14343 C5        -204.4608  -128.9244   292.3495 C5            1 RES     
   14344 C5        -205.8707  -128.4052   291.8095 C5            1 RES     
   14345 C5        -205.8282  -127.1099   290.8882 C5            1 RES     
   14346 C5        -207.1907  -126.7021   290.2074 C5            1 RES     
   14347 C5        -207.8813  -127.8540   289.4450 C5            1 RES     
   14348 C5        -206.9817  -128.5485   288.3941 C5            1 RES     
   14349 C5        -207.3896  -128.3655   286.9276 C5            1 RES     
   14350 C5        -207.4038  -126.9193   286.4447 C5            1 RES     
   14351 C5        -203.7101  -131.7350   293.5778 C5            1 RES     
   14352 C0        -203.9128  -133.6189   294.0691 C0            1 RES     
   14353 C5        -205.4579  -133.7391   294.1069 C5            1 RES     
   14354 C5        -206.2570  -132.5115   294.7626 C5            1 RES     
   14355 C5        -206.3675  -132.6056   296.2941 C5            1 RES     
   14356 C5        -205.0653  -132.8534   297.0900 C5            1 RES     
   14357 C5        -203.9064  -131.8709   296.8133 C5            1 RES     
   14358 C5        -202.7761  -131.9163   297.8332 C5            1 RES     
   14359 C5        -202.2120  -133.3258   298.0148 C5            1 RES     
   14360 C5        -201.2671  -133.3739   299.2112 C5            1 RES     
   14361 C5        -200.9787  -134.8267   299.5643 C5            1 RES     
   14362 C5        -200.2164  -134.9727   300.8613 C5            1 RES     
   14363 C5        -207.6424  -132.2976   294.0627 C5            1 RES     
   14364 C5        -208.4406  -130.9417   294.1685 C5            1 RES     
   14365 C5        -209.2132  -130.5137   295.4459 C5            1 RES     
   14366 C5        -210.1905  -131.5948   295.9250 C5            1 RES     
   14367 C5        -211.1959  -131.0975   296.9880 C5            1 RES     
   14368 C5        -211.8985  -132.2707   297.7063 C5            1 RES     
   14369 C5        -212.6613  -133.2609   296.8014 C5            1 RES     
   14370 C5        -213.9079  -132.6905   296.0996 C5            1 RES     
   14371 C5        -215.0193  -132.1990   297.0481 C5            1 RES     
   14372 C5        -215.5610  -133.2948   297.9705 C5            1 RES     
   14373 H6        -208.1795  -117.0703   298.8733 H6            1 RES     
   14374 H6        -209.7613  -117.1022   298.0090 H6            1 RES     
   14375 H6        -209.6584  -117.5711   299.7368 H6            1 RES     
   14376 H6        -208.2692  -119.5438   299.1963 H6            1 RES     
   14377 H6        -209.8515  -119.6429   298.3279 H6            1 RES     
   14378 H6        -208.7148  -118.8755   296.1920 H6            1 RES     
   14379 H6        -207.2218  -118.6201   297.1282 H6            1 RES     
   14380 H6        -206.9355  -121.0575   297.5639 H6            1 RES     
   14381 H6        -206.7902  -120.5747   295.8358 H6            1 RES     
   14382 H6        -208.9815  -121.6090   295.2849 H6            1 RES     
   14383 H6        -209.2295  -121.9464   297.0018 H6            1 RES     
   14384 H6        -208.8916  -124.0489   295.9800 H6            1 RES     
   14385 H6        -207.4860  -123.7693   297.0482 H6            1 RES     
   14386 H6        -207.5659  -123.7855   293.9865 H6            1 RES     
   14387 H6        -206.0379  -123.6140   294.8382 H6            1 RES     
   14388 H6        -206.5073  -125.7408   293.3861 H6            1 RES     
   14389 H6        -207.7501  -126.2750   294.5158 H6            1 RES     
   14390 H6        -204.6254  -126.5194   294.8865 H6            1 RES     
   14391 H6        -205.8601  -126.9934   296.0699 H6            1 RES     
   14392 H6        -206.2319  -129.2382   294.9479 H6            1 RES     
   14393 H6        -204.6911  -128.9539   295.7177 H6            1 RES     
   14394 H6        -203.3435  -129.5144   293.9388 H6            1 RES     
   14395 H6        -203.8235  -129.2759   291.5134 H6            1 RES     
   14396 H6        -203.9900  -127.9522   292.6534 H6            1 RES     
   14397 H6        -206.5527  -128.1263   292.6370 H6            1 RES     
   14398 H6        -206.3222  -129.2448   291.2585 H6            1 RES     
   14399 H6        -205.0662  -127.2289   290.1000 H6            1 RES     
   14400 H6        -205.4847  -126.2174   291.4614 H6            1 RES     
   14401 H6        -207.0260  -125.8490   289.5055 H6            1 RES     
   14402 H6        -207.9112  -126.3347   290.9746 H6            1 RES     
   14403 H6        -208.1606  -128.5973   290.2173 H6            1 RES     
   14404 H6        -208.8537  -127.5421   288.9986 H6            1 RES     
   14405 H6        -205.9193  -128.2755   288.5059 H6            1 RES     
   14406 H6        -207.0340  -129.6399   288.5900 H6            1 RES     
   14407 H6        -208.3936  -128.8110   286.7667 H6            1 RES     
   14408 H6        -206.6557  -128.9322   286.3123 H6            1 RES     
   14409 H6        -206.4127  -126.4418   286.5892 H6            1 RES     
   14410 H6        -207.6472  -126.9125   285.3595 H6            1 RES     
   14411 H6        -208.1828  -126.3367   286.9777 H6            1 RES     
   14412 H6        -202.6654  -131.5784   293.9315 H6            1 RES     
   14413 H6        -203.5160  -131.8068   292.4867 H6            1 RES     
   14414 H6        -205.7123  -133.8127   293.0321 H6            1 RES     
   14415 H6        -205.7466  -134.6865   294.6030 H6            1 RES     
   14416 H6        -205.7790  -131.5695   294.5690 H6            1 RES     
   14417 H6        -206.8090  -131.6615   296.6591 H6            1 RES     
   14418 H6        -207.0616  -133.4298   296.5451 H6            1 RES     
   14419 H6        -205.3435  -132.7822   298.1621 H6            1 RES     
   14420 H6        -204.7254  -133.8901   296.8842 H6            1 RES     
   14421 H6        -203.4294  -132.1348   295.8901 H6            1 RES     
   14422 H6        -204.2798  -130.8358   296.7597 H6            1 RES     
   14423 H6        -201.9586  -131.2297   297.5120 H6            1 RES     
   14424 H6        -203.1916  -131.5501   298.7927 H6            1 RES     
   14425 H6        -203.0526  -134.0041   298.2540 H6            1 RES     
   14426 H6        -201.7157  -133.6911   297.0865 H6            1 RES     
   14427 H6        -200.3290  -132.8150   298.9989 H6            1 RES     
   14428 H6        -201.7829  -132.9109   300.0782 H6            1 RES     
   14429 H6        -200.3714  -135.2575   298.7570 H6            1 RES     
   14430 H6        -201.9423  -135.3780   299.6788 H6            1 RES     
   14431 H6        -199.2198  -134.4984   300.7655 H6            1 RES     
   14432 H6        -200.0945  -136.0554   301.0794 H6            1 RES     
   14433 H6        -200.7903  -134.5035   301.6875 H6            1 RES     
   14434 H6        -208.3071  -133.1561   294.2659 H6            1 RES     
   14435 H6        -207.3954  -132.3143   292.9769 H6            1 RES     
   14436 H6        -207.8088  -130.0955   293.8383 H6            1 RES     
   14437 H6        -209.2284  -131.0120   293.3872 H6            1 RES     
   14438 H6        -208.5353  -130.2174   296.2733 H6            1 RES     
   14439 H6        -209.7996  -129.6025   295.1743 H6            1 RES     
   14440 H6        -209.5726  -132.4152   296.3433 H6            1 RES     
   14441 H6        -210.7777  -131.9727   295.0613 H6            1 RES     
   14442 H6        -211.9406  -130.4111   296.5226 H6            1 RES     
   14443 H6        -210.6589  -130.5225   297.7737 H6            1 RES     
   14444 H6        -212.5769  -131.8785   298.4932 H6            1 RES     
   14445 H6        -211.1051  -132.8486   298.2275 H6            1 RES     
   14446 H6        -212.9671  -134.1311   297.4172 H6            1 RES     
   14447 H6        -211.9698  -133.6637   296.0330 H6            1 RES     
   14448 H6        -213.6068  -131.8547   295.4337 H6            1 RES     
   14449 H6        -214.3334  -133.4931   295.4569 H6            1 RES     
   14450 H6        -214.6567  -131.3482   297.6605 H6            1 RES     
   14451 H6        -215.8622  -131.8299   296.4242 H6            1 RES     
   14452 H6        -215.9484  -134.1488   297.3749 H6            1 RES     
   14453 H6        -214.7771  -133.6571   298.6666 H6            1 RES     
   14454 H6        -216.3910  -132.8854   298.5840 H6            1 RES     
   14455 C0        -198.3604  -148.2859   296.0150 C0            1 RES     
   14456 C0        -198.7625  -147.2538   297.4964 C0            1 RES     
   14457 C0        -200.1012  -147.4366   297.8188 C0            1 RES     
   14458 S1        -200.7582  -146.3364   298.9632 S1            1 RES     
   14459 C0        -199.4710  -145.3489   299.3139 C0            1 RES     
   14460 C0        -198.3791  -146.0092   298.4242 C0            1 RES     
   14461 C0        -200.8445  -148.0992   296.7463 C0            1 RES     
   14462 C0        -199.8080  -147.8271   295.6682 C0            1 RES     
   14463 C0        -200.1068  -146.6952   294.9744 C0            1 RES     
   14464 C0        -201.3464  -146.1276   295.2594 C0            1 RES     
   14465 S1        -202.3214  -147.0590   296.4093 S1            1 RES     
   14466 H2        -197.4241  -145.4998   298.3767 H2            1 RES     
   14467 H2        -199.3818  -146.1406   294.4015 H2            1 RES     
   14468 N3        -201.7644  -142.8107   301.3757 N3            1 RES     
   14469 C0        -201.2712  -143.7640   300.5706 C0            1 RES     
   14470 C0        -199.8448  -144.0692   300.3601 C0            1 RES     
   14471 C0        -199.0513  -143.1320   301.1825 C0            1 RES     
   14472 N3        -197.6824  -143.1005   301.2454 N3            1 RES     
   14473 S1        -197.3649  -141.8849   302.3393 S1            1 RES     
   14474 N3        -198.8627  -141.3291   302.7609 N3            1 RES     
   14475 C0        -199.6702  -142.1181   302.0396 C0            1 RES     
   14476 C0        -201.0301  -141.9516   302.1348 C0            1 RES     
   14477 H4        -202.0292  -144.3106   300.0550 H4            1 RES     
   14478 C5        -197.9395  -165.3811   286.8613 C5            1 RES     
   14479 C5        -197.8975  -164.1264   287.7792 C5            1 RES     
   14480 C5        -196.9548  -162.9928   287.2573 C5            1 RES     
   14481 C5        -197.0570  -161.5400   287.9334 C5            1 RES     
   14482 C5        -196.4759  -161.2611   289.3863 C5            1 RES     
   14483 C5        -196.7690  -159.8550   290.2312 C5            1 RES     
   14484 C5        -196.0891  -158.3661   289.9973 C5            1 RES     
   14485 C5        -196.0726  -156.9670   291.0567 C5            1 RES     
   14486 C5        -197.1296  -155.6507   291.3018 C5            1 RES     
   14487 C5        -197.3253  -154.2247   292.3843 C5            1 RES     
   14488 C5        -196.7790  -152.5333   292.5093 C5            1 RES     
   14489 C5        -195.3777  -152.7140   291.6864 C5            1 RES     
   14490 C5        -194.3007  -153.8083   292.1243 C5            1 RES     
   14491 C5        -193.2722  -154.2607   290.9992 C5            1 RES     
   14492 C5        -192.0988  -155.2008   291.4743 C5            1 RES     
   14493 C5        -191.3221  -154.6663   292.6975 C5            1 RES     
   14494 C5        -190.7760  -153.2284   292.5236 C5            1 RES     
   14495 C5        -189.2505  -153.0867   292.4650 C5            1 RES     
   14496 C5        -188.5837  -153.8335   291.3150 C5            1 RES     
   14497 C5        -197.1978  -150.8743   293.4959 C5            1 RES     
   14498 C0        -197.8607  -150.0023   295.1182 C0            1 RES     
   14499 C5        -197.3644  -150.9963   296.1993 C5            1 RES     
   14500 C5        -197.5019  -152.5578   295.8553 C5            1 RES     
   14501 C5        -198.8898  -153.1337   296.1847 C5            1 RES     
   14502 C5        -200.1240  -152.3782   295.6404 C5            1 RES     
   14503 C5        -200.1338  -152.1055   294.1204 C5            1 RES     
   14504 C5        -201.4833  -151.6771   293.5590 C5            1 RES     
   14505 C5        -202.0620  -150.4674   294.2937 C5            1 RES     
   14506 C5        -203.5088  -150.2287   293.8743 C5            1 RES     
   14507 C5        -204.1543  -149.2428   294.8386 C5            1 RES     
   14508 C5        -205.6438  -149.1037   294.6224 C5            1 RES     
   14509 C5        -196.3318  -153.3840   296.4902 C5            1 RES     
   14510 C5        -195.9431  -154.8249   295.9807 C5            1 RES     
   14511 C5        -196.7832  -156.0904   296.3041 C5            1 RES     
   14512 C5        -197.0395  -156.2506   297.8081 C5            1 RES     
   14513 C5        -197.5887  -157.6407   298.2009 C5            1 RES     
   14514 C5        -198.1771  -157.6423   299.6291 C5            1 RES     
   14515 C5        -197.2191  -157.2073   300.7579 C5            1 RES     
   14516 C5        -196.0433  -158.1632   301.0329 C5            1 RES     
   14517 C5        -196.4500  -159.5801   301.4837 C5            1 RES     
   14518 C5        -197.2723  -159.5954   302.7754 C5            1 RES     
   14519 H6        -198.3039  -165.1298   285.8390 H6            1 RES     
   14520 H6        -196.9490  -165.8750   286.7661 H6            1 RES     
   14521 H6        -198.6499  -166.1401   287.2685 H6            1 RES     
   14522 H6        -198.9398  -163.7466   287.8172 H6            1 RES     
   14523 H6        -197.5910  -164.4480   288.7951 H6            1 RES     
   14524 H6        -195.9094  -163.3750   287.2253 H6            1 RES     
   14525 H6        -197.2657  -162.8581   286.1937 H6            1 RES     
   14526 H6        -198.1337  -161.2819   287.9185 H6            1 RES     
   14527 H6        -196.5187  -160.8558   287.2472 H6            1 RES     
   14528 H6        -195.3862  -161.4988   289.3634 H6            1 RES     
   14529 H6        -196.9326  -162.0828   289.9884 H6            1 RES     
   14530 H6        -196.4242  -160.1500   291.2470 H6            1 RES     
   14531 H6        -197.8675  -159.7564   290.2690 H6            1 RES     
   14532 H6        -195.0166  -158.6814   289.9576 H6            1 RES     
   14533 H6        -196.3199  -158.0567   288.9572 H6            1 RES     
   14534 H6        -195.1310  -156.5030   290.6964 H6            1 RES     
   14535 H6        -195.8115  -157.4281   292.0334 H6            1 RES     
   14536 H6        -197.3006  -155.2734   290.2725 H6            1 RES     
   14537 H6        -198.0245  -156.2506   291.5650 H6            1 RES     
   14538 H6        -197.1927  -154.6763   293.3722 H6            1 RES     
   14539 H6        -198.4080  -154.0842   292.2679 H6            1 RES     
   14540 H6        -197.3294  -152.1586   291.6173 H6            1 RES     
   14541 H6        -194.8852  -151.7507   291.4451 H6            1 RES     
   14542 H6        -195.6801  -153.1175   290.6839 H6            1 RES     
   14543 H6        -194.7802  -154.7532   292.4482 H6            1 RES     
   14544 H6        -193.7574  -153.3850   292.9833 H6            1 RES     
   14545 H6        -192.8335  -153.3765   290.5075 H6            1 RES     
   14546 H6        -193.7898  -154.7993   290.1715 H6            1 RES     
   14547 H6        -191.3822  -155.3705   290.6345 H6            1 RES     
   14548 H6        -192.4958  -156.2058   291.7482 H6            1 RES     
   14549 H6        -192.0465  -154.6700   293.5355 H6            1 RES     
   14550 H6        -190.5180  -155.3648   293.0257 H6            1 RES     
   14551 H6        -191.2159  -152.7156   291.6523 H6            1 RES     
   14552 H6        -191.1012  -152.6463   293.4111 H6            1 RES     
   14553 H6        -188.8118  -153.4327   293.4243 H6            1 RES     
   14554 H6        -189.0283  -152.0021   292.3529 H6            1 RES     
   14555 H6        -188.9980  -153.5106   290.3376 H6            1 RES     
   14556 H6        -187.4950  -153.6074   291.3322 H6            1 RES     
   14557 H6        -188.7117  -154.9289   291.4338 H6            1 RES     
   14558 H6        -197.8721  -150.3885   292.7541 H6            1 RES     
   14559 H6        -196.2708  -150.2974   293.2933 H6            1 RES     
   14560 H6        -196.2933  -150.7308   296.2860 H6            1 RES     
   14561 H6        -197.8611  -150.7765   297.1647 H6            1 RES     
   14562 H6        -197.3524  -152.7553   294.8103 H6            1 RES     
   14563 H6        -198.9286  -154.1655   295.7927 H6            1 RES     
   14564 H6        -198.9980  -153.1794   297.2849 H6            1 RES     
   14565 H6        -201.0037  -153.0052   295.8948 H6            1 RES     
   14566 H6        -200.2099  -151.4157   296.1870 H6            1 RES     
   14567 H6        -199.4909  -151.2752   293.9039 H6            1 RES     
   14568 H6        -199.7969  -152.9951   293.5645 H6            1 RES     
   14569 H6        -201.3749  -151.4347   292.4763 H6            1 RES     
   14570 H6        -202.1662  -152.5433   293.6628 H6            1 RES     
   14571 H6        -202.0853  -150.7010   295.3748 H6            1 RES     
   14572 H6        -201.4364  -149.5581   294.1416 H6            1 RES     
   14573 H6        -203.5629  -149.8629   292.8251 H6            1 RES     
   14574 H6        -204.0564  -151.1907   293.9571 H6            1 RES     
   14575 H6        -203.6897  -148.2603   294.6804 H6            1 RES     
   14576 H6        -203.9999  -149.5950   295.8864 H6            1 RES     
   14577 H6        -205.8387  -148.6871   293.6146 H6            1 RES     
   14578 H6        -206.0501  -148.4161   295.3949 H6            1 RES     
   14579 H6        -206.1320  -150.0945   294.7325 H6            1 RES     
   14580 H6        -196.4114  -153.3703   297.5918 H6            1 RES     
   14581 H6        -195.4203  -152.8077   296.2125 H6            1 RES     
   14582 H6        -195.7365  -154.8068   294.8939 H6            1 RES     
   14583 H6        -194.9528  -155.0333   296.4409 H6            1 RES     
   14584 H6        -197.7433  -156.1168   295.7478 H6            1 RES     
   14585 H6        -196.1880  -156.9676   295.9516 H6            1 RES     
   14586 H6        -197.7677  -155.4629   298.0893 H6            1 RES     
   14587 H6        -196.0904  -156.0974   298.3642 H6            1 RES     
   14588 H6        -196.7921  -158.4132   298.0966 H6            1 RES     
   14589 H6        -198.4185  -157.9240   297.5173 H6            1 RES     
   14590 H6        -198.6034  -158.6415   299.8595 H6            1 RES     
   14591 H6        -199.0263  -156.9255   299.6266 H6            1 RES     
   14592 H6        -197.8086  -157.0917   301.6901 H6            1 RES     
   14593 H6        -196.8161  -156.1992   300.5293 H6            1 RES     
   14594 H6        -195.4109  -158.2419   300.1237 H6            1 RES     
   14595 H6        -195.4190  -157.7120   301.8360 H6            1 RES     
   14596 H6        -197.0167  -160.0937   300.6803 H6            1 RES     
   14597 H6        -195.5195  -160.1613   301.6640 H6            1 RES     
   14598 H6        -196.7127  -159.1029   303.5992 H6            1 RES     
   14599 H6        -198.2473  -159.0852   302.6364 H6            1 RES     
   14600 H6        -197.4822  -160.6456   303.0682 H6            1 RES     
   14601 C0        -203.8215  -137.6526   302.9724 C0            1 RES     
   14602 C0        -204.8911  -139.1210   302.6250 C0            1 RES     
   14603 C0        -204.7401  -140.0385   303.6570 C0            1 RES     
   14604 S1        -205.3982  -141.6010   303.3791 S1            1 RES     
   14605 C0        -206.0316  -141.4732   301.8502 C0            1 RES     
   14606 C0        -205.6975  -139.9845   301.5474 C0            1 RES     
   14607 C0        -203.5854  -139.7358   304.5036 C0            1 RES     
   14608 C0        -202.9184  -138.8051   303.5040 C0            1 RES     
   14609 C0        -202.0028  -139.4708   302.7486 C0            1 RES     
   14610 C0        -201.7405  -140.7808   303.1420 C0            1 RES     
   14611 S1        -202.5941  -141.2793   304.6128 S1            1 RES     
   14612 H2        -205.9169  -139.6362   300.5453 H2            1 RES     
   14613 H2        -201.6491  -139.1161   301.7943 H2            1 RES     
   14614 N3        -206.7396  -145.3982   301.6341 N3            1 RES     
   14615 C0        -206.3145  -144.1644   301.9462 C0            1 RES     
   14616 C0        -206.6729  -142.9196   301.2432 C0            1 RES     
   14617 C0        -207.5736  -143.2701   300.1251 C0            1 RES     
   14618 N3        -208.1134  -142.3773   299.2360 N3            1 RES     
   14619 S1        -209.0540  -143.3282   298.2428 S1            1 RES     
   14620 N3        -208.8276  -144.8572   298.8266 N3            1 RES     
   14621 C0        -207.9930  -144.6470   299.8533 C0            1 RES     
   14622 C0        -207.5727  -145.7165   300.6053 C0            1 RES     
   14623 H4        -205.6511  -144.1488   302.7822 H4            1 RES     
   14624 C5        -198.0799  -123.2182   314.5869 C5            1 RES     
   14625 C5        -198.7542  -124.3177   313.7181 C5            1 RES     
   14626 C5        -198.4383  -124.1987   312.1911 C5            1 RES     
   14627 C5        -198.8087  -125.4336   311.2339 C5            1 RES     
   14628 C5        -200.3140  -125.7438   310.8291 C5            1 RES     
   14629 C5        -200.7794  -127.1413   310.0497 C5            1 RES     
   14630 C5        -200.5826  -127.5317   308.4552 C5            1 RES     
   14631 C5        -201.3569  -128.7916   307.5101 C5            1 RES     
   14632 C5        -201.0107  -130.4353   307.2129 C5            1 RES     
   14633 C5        -201.7269  -131.8658   306.3854 C5            1 RES     
   14634 C5        -201.7835  -132.6066   304.7659 C5            1 RES     
   14635 C5        -201.5493  -131.2337   303.9092 C5            1 RES     
   14636 C5        -202.4996  -129.9663   304.1085 C5            1 RES     
   14637 C5        -201.8947  -128.5662   303.6592 C5            1 RES     
   14638 C5        -202.8906  -127.3439   303.6843 C5            1 RES     
   14639 C5        -204.2154  -127.5979   302.9323 C5            1 RES     
   14640 C5        -204.0341  -128.0694   301.4691 C5            1 RES     
   14641 C5        -204.5010  -127.0948   300.3816 C5            1 RES     
   14642 C5        -203.7884  -125.7468   300.3838 C5            1 RES     
   14643 C5        -202.2971  -134.3016   303.8918 C5            1 RES     
   14644 C0        -203.4280  -135.8987   303.8496 C0            1 RES     
   14645 C5        -204.7505  -135.3268   304.4216 C5            1 RES     
   14646 C5        -204.6176  -134.3085   305.6548 C5            1 RES     
   14647 C5        -204.5144  -135.0138   307.0181 C5            1 RES     
   14648 C5        -203.4606  -136.1357   307.1637 C5            1 RES     
   14649 C5        -202.0138  -135.7589   306.7765 C5            1 RES     
   14650 C5        -200.9523  -136.7468   307.2424 C5            1 RES     
   14651 C5        -201.2437  -138.1752   306.7811 C5            1 RES     
   14652 C5        -200.3068  -139.1617   307.4706 C5            1 RES     
   14653 C5        -200.8199  -140.5782   307.2502 C5            1 RES     
   14654 C5        -200.0702  -141.6052   308.0676 C5            1 RES     
   14655 C5        -205.7427  -133.2189   305.6150 C5            1 RES     
   14656 C5        -205.6261  -131.8566   306.4008 C5            1 RES     
   14657 C5        -205.8151  -131.7496   307.9385 C5            1 RES     
   14658 C5        -207.1357  -132.3735   308.4078 C5            1 RES     
   14659 C5        -207.5107  -132.0143   309.8634 C5            1 RES     
   14660 C5        -208.6196  -132.9376   310.4145 C5            1 RES     
   14661 C5        -209.9366  -132.9703   309.6110 C5            1 RES     
   14662 C5        -210.7510  -131.6632   309.6220 C5            1 RES     
   14663 C5        -211.2343  -131.2109   311.0143 C5            1 RES     
   14664 C5        -212.1361  -132.2356   311.7082 C5            1 RES     
   14665 H6        -196.9696  -123.2523   314.5031 H6            1 RES     
   14666 H6        -198.4178  -122.1943   314.3194 H6            1 RES     
   14667 H6        -198.3166  -123.3731   315.6670 H6            1 RES     
   14668 H6        -198.3621  -125.2840   314.0984 H6            1 RES     
   14669 H6        -199.8486  -124.2764   313.8917 H6            1 RES     
   14670 H6        -198.8374  -123.2310   311.8113 H6            1 RES     
   14671 H6        -197.3263  -124.1074   312.1566 H6            1 RES     
   14672 H6        -198.3737  -126.3272   311.7222 H6            1 RES     
   14673 H6        -198.2645  -125.2470   310.2863 H6            1 RES     
   14674 H6        -200.7158  -124.8404   310.3123 H6            1 RES     
   14675 H6        -200.8301  -125.7570   311.8189 H6            1 RES     
   14676 H6        -201.8833  -127.0906   310.1787 H6            1 RES     
   14677 H6        -200.4091  -127.9683   310.6798 H6            1 RES     
   14678 H6        -200.9743  -126.5849   308.0064 H6            1 RES     
   14679 H6        -199.4947  -127.5046   308.2397 H6            1 RES     
   14680 H6        -201.2898  -128.3094   306.5128 H6            1 RES     
   14681 H6        -202.4198  -128.6789   307.8139 H6            1 RES     
   14682 H6        -199.9438  -130.4142   306.9089 H6            1 RES     
   14683 H6        -201.0251  -130.7643   308.2719 H6            1 RES     
   14684 H6        -202.7530  -131.8509   306.7652 H6            1 RES     
   14685 H6        -201.2136  -132.6520   306.9546 H6            1 RES     
   14686 H6        -200.7089  -132.8934   304.7226 H6            1 RES     
   14687 H6        -201.3577  -131.4175   302.8330 H6            1 RES     
   14688 H6        -200.5771  -130.8190   304.2862 H6            1 RES     
   14689 H6        -202.7693  -129.8156   305.1726 H6            1 RES     
   14690 H6        -203.4221  -130.1764   303.5452 H6            1 RES     
   14691 H6        -201.4647  -128.6451   302.6468 H6            1 RES     
   14692 H6        -201.0275  -128.2771   304.2976 H6            1 RES     
   14693 H6        -202.3957  -126.4399   303.2537 H6            1 RES     
   14694 H6        -203.1524  -127.0805   304.7353 H6            1 RES     
   14695 H6        -204.7316  -128.3970   303.4995 H6            1 RES     
   14696 H6        -204.9083  -126.7269   302.9910 H6            1 RES     
   14697 H6        -202.9972  -128.3755   301.2529 H6            1 RES     
   14698 H6        -204.6504  -128.9839   301.3423 H6            1 RES     
   14699 H6        -205.5937  -126.9270   300.4824 H6            1 RES     
   14700 H6        -204.3145  -127.5871   299.4012 H6            1 RES     
   14701 H6        -202.6912  -125.8766   300.2826 H6            1 RES     
   14702 H6        -204.1575  -125.1517   299.5198 H6            1 RES     
   14703 H6        -204.0163  -125.1856   301.3131 H6            1 RES     
   14704 H6        -201.3004  -134.7982   303.8613 H6            1 RES     
   14705 H6        -202.3534  -133.9584   302.8371 H6            1 RES     
   14706 H6        -205.1715  -134.7941   303.5473 H6            1 RES     
   14707 H6        -205.4319  -136.1581   304.6892 H6            1 RES     
   14708 H6        -203.7361  -133.6995   305.5819 H6            1 RES     
   14709 H6        -204.2931  -134.2452   307.7796 H6            1 RES     
   14710 H6        -205.4979  -135.4611   307.2564 H6            1 RES     
   14711 H6        -203.4763  -136.4339   308.2326 H6            1 RES     
   14712 H6        -203.7906  -137.0023   306.5532 H6            1 RES     
   14713 H6        -201.9185  -135.7649   305.7086 H6            1 RES     
   14714 H6        -201.7537  -134.7634   307.1704 H6            1 RES     
   14715 H6        -199.9555  -136.4300   306.8563 H6            1 RES     
   14716 H6        -200.9348  -136.7044   308.3493 H6            1 RES     
   14717 H6        -202.2678  -138.4388   307.1059 H6            1 RES     
   14718 H6        -201.1898  -138.2664   305.6720 H6            1 RES     
   14719 H6        -199.2649  -139.0460   307.0984 H6            1 RES     
   14720 H6        -200.3324  -138.9584   308.5616 H6            1 RES     
   14721 H6        -200.6921  -140.8235   306.1874 H6            1 RES     
   14722 H6        -201.8941  -140.6332   307.5479 H6            1 RES     
   14723 H6        -199.0088  -141.6331   307.7516 H6            1 RES     
   14724 H6        -200.5359  -142.5997   307.8982 H6            1 RES     
   14725 H6        -200.1464  -141.3532   309.1460 H6            1 RES     
   14726 H6        -206.7289  -133.6847   305.7901 H6            1 RES     
   14727 H6        -205.7244  -132.8584   304.5615 H6            1 RES     
   14728 H6        -204.6941  -131.3295   306.1223 H6            1 RES     
   14729 H6        -206.4338  -131.2163   305.9842 H6            1 RES     
   14730 H6        -204.9645  -132.1858   308.5026 H6            1 RES     
   14731 H6        -205.8324  -130.6597   308.1832 H6            1 RES     
   14732 H6        -207.0186  -133.4717   308.3074 H6            1 RES     
   14733 H6        -207.9632  -132.0249   307.7543 H6            1 RES     
   14734 H6        -207.8130  -130.9436   309.9303 H6            1 RES     
   14735 H6        -206.6274  -132.1526   310.5243 H6            1 RES     
   14736 H6        -208.8300  -132.6820   311.4745 H6            1 RES     
   14737 H6        -208.2083  -133.9700   310.4104 H6            1 RES     
   14738 H6        -210.5699  -133.7871   310.0130 H6            1 RES     
   14739 H6        -209.7183  -133.2481   308.5593 H6            1 RES     
   14740 H6        -210.1486  -130.8488   309.1675 H6            1 RES     
   14741 H6        -211.6465  -131.8152   308.9791 H6            1 RES     
   14742 H6        -210.3683  -130.9801   311.6680 H6            1 RES     
   14743 H6        -211.8181  -130.2737   310.8852 H6            1 RES     
   14744 H6        -213.0215  -132.4654   311.0777 H6            1 RES     
   14745 H6        -211.5851  -133.1736   311.9248 H6            1 RES     
   14746 H6        -212.4887  -131.8226   312.6767 H6            1 RES     
   14747 C0        -206.7110  -150.6467   299.2176 C0            1 RES     
   14748 C0        -206.2297  -150.3231   300.9740 C0            1 RES     
   14749 C0        -207.3727  -150.0176   301.7018 C0            1 RES     
   14750 S1        -207.1160  -149.3787   303.2759 S1            1 RES     
   14751 C0        -205.4610  -149.3334   303.3954 C0            1 RES     
   14752 C0        -205.0779  -149.9348   302.0129 C0            1 RES     
   14753 C0        -208.5190  -149.7291   300.8390 C0            1 RES     
   14754 C0        -207.6946  -149.4956   299.5835 C0            1 RES     
   14755 C0        -207.4225  -148.1731   299.4136 C0            1 RES     
   14756 C0        -208.0746  -147.3100   300.2910 C0            1 RES     
   14757 S1        -209.2027  -148.1163   301.3944 S1            1 RES     
   14758 H2        -204.0232  -149.9385   301.7653 H2            1 RES     
   14759 H2        -206.6148  -147.8065   298.8016 H2            1 RES     
   14760 N3        -205.5966  -147.2587   306.8058 N3            1 RES     
   14761 C0        -205.8513  -147.8617   305.6345 C0            1 RES     
   14762 C0        -204.8892  -148.6360   304.8301 C0            1 RES     
   14763 C0        -203.5898  -148.6215   305.5341 C0            1 RES     
   14764 N3        -202.4442  -149.2295   305.0904 N3            1 RES     
   14765 S1        -201.3356  -148.9085   306.2918 S1            1 RES     
   14766 N3        -202.1832  -148.0012   307.3820 N3            1 RES     
   14767 C0        -203.3958  -147.9390   306.8156 C0            1 RES     
   14768 C0        -204.3989  -147.2509   307.4531 C0            1 RES     
   14769 H4        -206.8560  -147.7238   305.3020 H4            1 RES     
   14770 C5        -217.3109  -160.0875   285.9991 C5            1 RES     
   14771 C5        -216.4339  -159.5362   287.1591 C5            1 RES     
   14772 C5        -215.1194  -158.8370   286.6802 C5            1 RES     
   14773 C5        -214.2891  -157.9601   287.7386 C5            1 RES     
   14774 C5        -213.4270  -158.6451   288.8847 C5            1 RES     
   14775 C5        -212.7514  -157.7954   290.1490 C5            1 RES     
   14776 C5        -211.4084  -156.8313   290.1254 C5            1 RES     
   14777 C5        -210.4495  -156.2191   291.4617 C5            1 RES     
   14778 C5        -210.5439  -154.8353   292.4548 C5            1 RES     
   14779 C5        -209.7397  -154.1186   293.8982 C5            1 RES     
   14780 C5        -208.3359  -153.0972   294.2996 C5            1 RES     
   14781 C5        -207.4235  -153.4913   293.0012 C5            1 RES     
   14782 C5        -207.0803  -155.0144   292.6675 C5            1 RES     
   14783 C5        -206.6715  -155.3212   291.1619 C5            1 RES     
   14784 C5        -206.1580  -156.7832   290.8702 C5            1 RES     
   14785 C5        -205.0312  -157.2534   291.8159 C5            1 RES     
   14786 C5        -203.8161  -156.2966   291.8800 C5            1 RES     
   14787 C5        -202.5011  -156.8339   291.3032 C5            1 RES     
   14788 C5        -202.5549  -157.1993   289.8239 C5            1 RES     
   14789 C5        -207.6002  -152.0578   295.8093 C5            1 RES     
   14790 C0        -207.3981  -151.8065   297.7400 C0            1 RES     
   14791 C5        -207.3703  -153.2809   298.2182 C5            1 RES     
   14792 C5        -208.4033  -154.2842   297.5098 C5            1 RES     
   14793 C5        -209.8033  -154.2665   298.1473 C5            1 RES     
   14794 C5        -210.4798  -152.8906   298.3466 C5            1 RES     
   14795 C5        -210.5803  -151.9982   297.0903 C5            1 RES     
   14796 C5        -211.5351  -150.8189   297.2219 C5            1 RES     
   14797 C5        -211.2194  -149.9470   298.4377 C5            1 RES     
   14798 C5        -212.3360  -148.9355   298.6751 C5            1 RES     
   14799 C5        -212.1621  -148.3107   300.0527 C5            1 RES     
   14800 C5        -213.3362  -147.4484   300.4559 C5            1 RES     
   14801 C5        -207.8038  -155.7271   297.3935 C5            1 RES     
   14802 C5        -208.3667  -156.7953   296.3791 C5            1 RES     
   14803 C5        -209.7024  -157.5543   296.6063 C5            1 RES     
   14804 C5        -209.7594  -158.2343   297.9803 C5            1 RES     
   14805 C5        -210.9154  -159.2498   298.1243 C5            1 RES     
   14806 C5        -211.1678  -159.6259   299.6010 C5            1 RES     
   14807 C5        -209.9632  -160.2117   300.3672 C5            1 RES     
   14808 C5        -209.4887  -161.5982   299.8936 C5            1 RES     
   14809 C5        -210.5339  -162.7233   300.0280 C5            1 RES     
   14810 C5        -211.0068  -162.9461   301.4673 C5            1 RES     
   14811 H6        -217.6332  -159.2763   285.3069 H6            1 RES     
   14812 H6        -216.7910  -160.8675   285.4031 H6            1 RES     
   14813 H6        -218.2465  -160.5463   286.4000 H6            1 RES     
   14814 H6        -217.0686  -158.7967   287.6905 H6            1 RES     
   14815 H6        -216.1989  -160.3737   287.8466 H6            1 RES     
   14816 H6        -214.4826  -159.5824   286.1522 H6            1 RES     
   14817 H6        -215.4692  -158.1220   285.8976 H6            1 RES     
   14818 H6        -215.0278  -157.2768   288.2006 H6            1 RES     
   14819 H6        -213.5803  -157.3596   287.1337 H6            1 RES     
   14820 H6        -212.6724  -159.3015   288.3905 H6            1 RES     
   14821 H6        -214.1589  -159.3514   289.3448 H6            1 RES     
   14822 H6        -212.4704  -158.6291   290.8300 H6            1 RES     
   14823 H6        -213.5879  -157.2501   290.6190 H6            1 RES     
   14824 H6        -210.7136  -157.5331   289.6000 H6            1 RES     
   14825 H6        -211.5922  -156.0260   289.3848 H6            1 RES     
   14826 H6        -209.4811  -156.1132   290.9301 H6            1 RES     
   14827 H6        -210.3352  -157.1278   292.0908 H6            1 RES     
   14828 H6        -210.6394  -154.0083   291.7214 H6            1 RES     
   14829 H6        -211.5651  -155.0245   292.8438 H6            1 RES     
   14830 H6        -209.7232  -154.9682   294.5876 H6            1 RES     
   14831 H6        -210.5648  -153.4792   294.2387 H6            1 RES     
   14832 H6        -208.7208  -152.1656   293.8273 H6            1 RES     
   14833 H6        -206.5261  -152.8507   292.8872 H6            1 RES     
   14834 H6        -208.0550  -153.2265   292.1121 H6            1 RES     
   14835 H6        -207.9437  -155.6829   292.8550 H6            1 RES     
   14836 H6        -206.2641  -155.3062   293.3465 H6            1 RES     
   14837 H6        -205.9019  -154.6072   290.8239 H6            1 RES     
   14838 H6        -207.5255  -155.1444   290.4672 H6            1 RES     
   14839 H6        -205.8015  -156.8587   289.8144 H6            1 RES     
   14840 H6        -206.9954  -157.5128   290.9653 H6            1 RES     
   14841 H6        -205.4906  -157.3088   292.8223 H6            1 RES     
   14842 H6        -204.7091  -158.2987   291.6025 H6            1 RES     
   14843 H6        -204.0309  -155.3154   291.4252 H6            1 RES     
   14844 H6        -203.6167  -156.0938   292.9530 H6            1 RES     
   14845 H6        -202.1807  -157.7236   291.8847 H6            1 RES     
   14846 H6        -201.7364  -156.0369   291.4388 H6            1 RES     
   14847 H6        -202.8709  -156.3302   289.2107 H6            1 RES     
   14848 H6        -201.5376  -157.5116   289.5008 H6            1 RES     
   14849 H6        -203.2475  -158.0493   289.6560 H6            1 RES     
   14850 H6        -208.0005  -151.0517   295.5479 H6            1 RES     
   14851 H6        -206.5558  -151.9275   295.4551 H6            1 RES     
   14852 H6        -206.3344  -153.5855   297.9744 H6            1 RES     
   14853 H6        -207.4994  -153.3193   299.3177 H6            1 RES     
   14854 H6        -208.5583  -154.0398   296.4756 H6            1 RES     
   14855 H6        -210.4697  -154.8792   297.5148 H6            1 RES     
   14856 H6        -209.7404  -154.7433   299.1437 H6            1 RES     
   14857 H6        -211.5050  -153.1039   298.7143 H6            1 RES     
   14858 H6        -209.9287  -152.3455   299.1415 H6            1 RES     
   14859 H6        -209.6298  -151.5389   296.9034 H6            1 RES     
   14860 H6        -210.8875  -152.5933   296.2154 H6            1 RES     
   14861 H6        -211.4859  -150.1965   296.2982 H6            1 RES     
   14862 H6        -212.5563  -151.2384   297.3139 H6            1 RES     
   14863 H6        -211.1946  -150.5992   299.3309 H6            1 RES     
   14864 H6        -210.2289  -149.4470   298.3370 H6            1 RES     
   14865 H6        -212.3457  -148.1603   297.8773 H6            1 RES     
   14866 H6        -213.3032  -149.4803   298.6703 H6            1 RES     
   14867 H6        -211.2634  -147.6799   300.0277 H6            1 RES     
   14868 H6        -212.0631  -149.1191   300.8158 H6            1 RES     
   14869 H6        -213.4260  -146.5897   299.7618 H6            1 RES     
   14870 H6        -213.1630  -147.0764   301.4885 H6            1 RES     
   14871 H6        -214.2664  -148.0538   300.4447 H6            1 RES     
   14872 H6        -207.6845  -156.1709   298.3980 H6            1 RES     
   14873 H6        -206.7844  -155.5571   296.9787 H6            1 RES     
   14874 H6        -208.3623  -156.3894   295.3498 H6            1 RES     
   14875 H6        -207.5996  -157.5996   296.3561 H6            1 RES     
   14876 H6        -210.5904  -156.9035   296.4649 H6            1 RES     
   14877 H6        -209.7591  -158.3441   295.8184 H6            1 RES     
   14878 H6        -209.8724  -157.4238   298.7287 H6            1 RES     
   14879 H6        -208.8101  -158.7813   298.1627 H6            1 RES     
   14880 H6        -210.7097  -160.1573   297.5108 H6            1 RES     
   14881 H6        -211.8599  -158.8003   297.7472 H6            1 RES     
   14882 H6        -212.0329  -160.3188   299.6705 H6            1 RES     
   14883 H6        -211.4645  -158.6911   300.1236 H6            1 RES     
   14884 H6        -210.2312  -160.2756   301.4415 H6            1 RES     
   14885 H6        -209.1120  -159.5025   300.3106 H6            1 RES     
   14886 H6        -209.1617  -161.5348   298.8345 H6            1 RES     
   14887 H6        -208.5999  -161.8793   300.5014 H6            1 RES     
   14888 H6        -211.4103  -162.5162   299.3804 H6            1 RES     
   14889 H6        -210.0672  -163.6673   299.6716 H6            1 RES     
   14890 H6        -210.1447  -163.1756   302.1294 H6            1 RES     
   14891 H6        -211.5427  -162.0561   301.8559 H6            1 RES     
   14892 H6        -211.7135  -163.8021   301.4965 H6            1 RES     
   14893 C0        -204.1614  -143.0399   310.4839 C0            1 RES     
   14894 C0        -205.9048  -143.5575   310.1459 C0            1 RES     
   14895 C0        -206.1244  -144.7979   310.7314 C0            1 RES     
   14896 S1        -207.5726  -145.6015   310.2743 S1            1 RES     
   14897 C0        -208.2643  -144.5426   309.1993 C0            1 RES     
   14898 C0        -207.2147  -143.3953   309.2434 C0            1 RES     
   14899 C0        -204.8778  -145.4483   311.1371 C0            1 RES     
   14900 C0        -203.9775  -144.5732   310.2803 C0            1 RES     
   14901 C0        -203.7198  -145.1606   309.0801 C0            1 RES     
   14902 C0        -204.1686  -146.4723   308.9467 C0            1 RES     
   14903 S1        -204.9062  -147.1375   310.4143 S1            1 RES     
   14904 H2        -207.3616  -142.5816   308.5434 H2            1 RES     
   14905 H2        -203.3873  -144.6163   308.2114 H2            1 RES     
   14906 N3        -211.0528  -147.1928   308.1251 N3            1 RES     
   14907 C0        -209.9716  -146.5577   308.6028 C0            1 RES     
   14908 C0        -209.6871  -145.1169   308.4799 C0            1 RES     
   14909 C0        -210.7963  -144.4952   307.7266 C0            1 RES     
   14910 N3        -210.8849  -143.1658   307.4043 N3            1 RES     
   14911 S1        -212.3394  -143.0501   306.6005 S1            1 RES     
   14912 N3        -212.9085  -144.6012   306.5841 N3            1 RES     
   14913 C0        -211.9456  -145.2623   307.2405 C0            1 RES     
   14914 C0        -212.0745  -146.6157   307.4347 C0            1 RES     
   14915 H4        -209.2871  -147.2101   309.0977 H4            1 RES     
   14916 C5        -189.6086  -139.4882   322.8053 C5            1 RES     
   14917 C5        -190.9082  -139.6612   321.9688 C5            1 RES     
   14918 C5        -190.8291  -139.0293   320.5404 C5            1 RES     
   14919 C5        -191.9696  -139.4027   319.4735 C5            1 RES     
   14920 C5        -193.4359  -138.7996   319.5851 C5            1 RES     
   14921 C5        -194.7156  -139.3369   318.6628 C5            1 RES     
   14922 C5        -195.0270  -139.0193   317.0704 C5            1 RES     
   14923 C5        -196.5093  -139.2393   316.1569 C5            1 RES     
   14924 C5        -197.1853  -140.5411   315.2860 C5            1 RES     
   14925 C5        -198.6958  -140.9719   314.4048 C5            1 RES     
   14926 C5        -199.4124  -140.8044   312.7821 C5            1 RES     
   14927 C5        -198.5975  -139.4571   312.3412 C5            1 RES     
   14928 C5        -198.6393  -138.1383   313.2400 C5            1 RES     
   14929 C5        -197.4412  -137.1145   313.0285 C5            1 RES     
   14930 C5        -197.5730  -135.7333   313.7775 C5            1 RES     
   14931 C5        -198.9164  -135.0118   313.5325 C5            1 RES     
   14932 C5        -199.2643  -134.8090   312.0379 C5            1 RES     
   14933 C5        -199.2798  -133.3599   311.5375 C5            1 RES     
   14934 C5        -197.9503  -132.6250   311.6687 C5            1 RES     
   14935 C5        -200.9116  -141.5101   311.7071 C5            1 RES     
   14936 C0        -202.7273  -142.2366   311.6234 C0            1 RES     
   14937 C5        -203.3987  -141.4610   312.7856 C5            1 RES     
   14938 C5        -202.5279  -141.2742   314.1207 C5            1 RES     
   14939 C5        -202.6159  -142.4754   315.0778 C5            1 RES     
   14940 C5        -202.3538  -143.8799   314.4869 C5            1 RES     
   14941 C5        -201.0254  -144.0531   313.7186 C5            1 RES     
   14942 C5        -200.6313  -145.4989   313.4464 C5            1 RES     
   14943 C5        -201.7350  -146.2784   312.7307 C5            1 RES     
   14944 C5        -201.4060  -147.7675   312.7023 C5            1 RES     
   14945 C5        -202.6456  -148.5470   312.2847 C5            1 RES     
   14946 C5        -202.4715  -150.0417   312.4267 C5            1 RES     
   14947 C5        -202.8492  -139.9104   314.8217 C5            1 RES     
   14948 C5        -201.8729  -139.2495   315.8690 C5            1 RES     
   14949 C5        -201.7213  -139.7660   317.3257 C5            1 RES     
   14950 C5        -203.0704  -139.8777   318.0474 C5            1 RES     
   14951 C5        -202.9442  -140.0790   319.5744 C5            1 RES     
   14952 C5        -204.2733  -140.5538   320.2022 C5            1 RES     
   14953 C5        -205.4958  -139.6404   319.9735 C5            1 RES     
   14954 C5        -205.4348  -138.2670   320.6676 C5            1 RES     
   14955 C5        -205.3554  -138.3198   322.2062 C5            1 RES     
   14956 C5        -206.5487  -139.0285   322.8533 C5            1 RES     
   14957 H6        -188.7342  -139.9679   322.3091 H6            1 RES     
   14958 H6        -189.3600  -138.4222   322.9942 H6            1 RES     
   14959 H6        -189.7146  -139.9845   323.7998 H6            1 RES     
   14960 H6        -191.0625  -140.7565   321.8760 H6            1 RES     
   14961 H6        -191.7513  -139.2228   322.5402 H6            1 RES     
   14962 H6        -190.6796  -137.9301   320.6366 H6            1 RES     
   14963 H6        -189.8758  -139.4339   320.1237 H6            1 RES     
   14964 H6        -192.0313  -140.5082   319.4813 H6            1 RES     
   14965 H6        -191.5737  -139.0764   318.4909 H6            1 RES     
   14966 H6        -193.3462  -137.6885   319.5428 H6            1 RES     
   14967 H6        -193.7059  -139.0220   320.6453 H6            1 RES     
   14968 H6        -195.5684  -138.8672   319.2011 H6            1 RES     
   14969 H6        -194.7705  -140.4250   318.8389 H6            1 RES     
   14970 H6        -194.8941  -137.9090   317.0969 H6            1 RES     
   14971 H6        -194.1580  -139.3830   316.4844 H6            1 RES     
   14972 H6        -196.3472  -138.4499   315.3939 H6            1 RES     
   14973 H6        -197.2662  -138.8171   316.8522 H6            1 RES     
   14974 H6        -196.3510  -140.8607   314.6281 H6            1 RES     
   14975 H6        -197.2096  -141.2618   316.1286 H6            1 RES     
   14976 H6        -199.4647  -140.6759   315.1249 H6            1 RES     
   14977 H6        -198.6211  -142.0643   314.4861 H6            1 RES     
   14978 H6        -198.7007  -141.4833   312.2611 H6            1 RES     
   14979 H6        -198.7155  -139.2066   311.2679 H6            1 RES     
   14980 H6        -197.5132  -139.7309   312.4336 H6            1 RES     
   14981 H6        -198.6053  -138.3746   314.3220 H6            1 RES     
   14982 H6        -199.5994  -137.6442   313.0248 H6            1 RES     
   14983 H6        -197.2961  -136.9160   311.9535 H6            1 RES     
   14984 H6        -196.4702  -137.5560   313.3535 H6            1 RES     
   14985 H6        -196.7368  -135.0559   313.4784 H6            1 RES     
   14986 H6        -197.4722  -135.8794   314.8780 H6            1 RES     
   14987 H6        -199.6900  -135.6587   313.9906 H6            1 RES     
   14988 H6        -198.9901  -134.0531   314.0961 H6            1 RES     
   14989 H6        -198.6218  -135.4095   311.3728 H6            1 RES     
   14990 H6        -200.2950  -135.1932   311.8878 H6            1 RES     
   14991 H6        -200.0632  -132.7914   312.0812 H6            1 RES     
   14992 H6        -199.5576  -133.3903   310.4604 H6            1 RES     
   14993 H6        -197.1424  -133.1659   311.1342 H6            1 RES     
   14994 H6        -198.0605  -131.6142   311.2182 H6            1 RES     
   14995 H6        -197.6764  -132.5001   312.7363 H6            1 RES     
   14996 H6        -200.3777  -142.3238   311.1651 H6            1 RES     
   14997 H6        -200.9364  -140.7490   310.8988 H6            1 RES     
   14998 H6        -203.5874  -140.4714   312.3271 H6            1 RES     
   14999 H6        -204.3730  -141.9269   313.0317 H6            1 RES     
   15000 H6        -201.4821  -141.1565   313.9070 H6            1 RES     
   15001 H6        -201.8870  -142.3126   315.8913 H6            1 RES     
   15002 H6        -203.6289  -142.4956   315.5223 H6            1 RES     
   15003 H6        -202.3605  -144.5804   315.3478 H6            1 RES     
   15004 H6        -203.2016  -144.1382   313.8183 H6            1 RES     
   15005 H6        -201.1222  -143.6252   312.7403 H6            1 RES     
   15006 H6        -200.1980  -143.5672   314.2600 H6            1 RES     
   15007 H6        -199.7035  -145.5207   312.8286 H6            1 RES     
   15008 H6        -200.4159  -145.9655   314.4278 H6            1 RES     
   15009 H6        -202.6655  -146.1760   313.3203 H6            1 RES     
   15010 H6        -201.9194  -145.8804   311.7065 H6            1 RES     
   15011 H6        -200.5506  -147.9721   312.0211 H6            1 RES     
   15012 H6        -201.1393  -148.0826   313.7327 H6            1 RES     
   15013 H6        -202.8477  -148.3221   311.2289 H6            1 RES     
   15014 H6        -203.5057  -148.2476   312.9299 H6            1 RES     
   15015 H6        -201.6707  -150.3918   311.7459 H6            1 RES     
   15016 H6        -203.4302  -150.5359   312.1597 H6            1 RES     
   15017 H6        -202.2211  -150.2910   313.4789 H6            1 RES     
   15018 H6        -203.8848  -139.9157   315.2061 H6            1 RES     
   15019 H6        -202.8034  -139.1693   313.9917 H6            1 RES     
   15020 H6        -200.8641  -139.1265   315.4315 H6            1 RES     
   15021 H6        -202.2445  -138.2085   315.9889 H6            1 RES     
   15022 H6        -201.1779  -140.7324   317.3795 H6            1 RES     
   15023 H6        -201.0921  -139.0177   317.8662 H6            1 RES     
   15024 H6        -203.5997  -140.7406   317.5945 H6            1 RES     
   15025 H6        -203.6578  -138.9499   317.8806 H6            1 RES     
   15026 H6        -202.5869  -139.1407   320.0585 H6            1 RES     
   15027 H6        -202.1934  -140.8706   319.7885 H6            1 RES     
   15028 H6        -204.1334  -140.7328   321.2892 H6            1 RES     
   15029 H6        -204.5102  -141.5382   319.7442 H6            1 RES     
   15030 H6        -206.4014  -140.1760   320.3244 H6            1 RES     
   15031 H6        -205.6402  -139.4859   318.8844 H6            1 RES     
   15032 H6        -204.5642  -137.6963   320.2813 H6            1 RES     
   15033 H6        -206.3534  -137.7041   320.3891 H6            1 RES     
   15034 H6        -204.4154  -138.8129   322.5282 H6            1 RES     
   15035 H6        -205.3335  -137.2741   322.5831 H6            1 RES     
   15036 H6        -207.5002  -138.5363   322.5592 H6            1 RES     
   15037 H6        -206.5838  -140.0992   322.5655 H6            1 RES     
   15038 H6        -206.4524  -138.9814   323.9585 H6            1 RES     
   15039 C0        -214.3261  -150.2219   304.4512 C0            1 RES     
   15040 C0        -213.4720  -150.9629   305.9150 C0            1 RES     
   15041 C0        -214.1195  -150.5435   307.0702 C0            1 RES     
   15042 S1        -213.3032  -150.8586   308.5487 S1            1 RES     
   15043 C0        -211.9072  -151.6073   308.0528 C0            1 RES     
   15044 C0        -212.1495  -151.6308   306.5164 C0            1 RES     
   15045 C0        -215.0341  -149.4289   306.8198 C0            1 RES     
   15046 C0        -214.4327  -149.0530   305.4753 C0            1 RES     
   15047 C0        -213.5047  -148.0670   305.6109 C0            1 RES     
   15048 C0        -213.4181  -147.4963   306.8785 C0            1 RES     
   15049 S1        -214.6095  -148.1168   308.0343 S1            1 RES     
   15050 H2        -211.3298  -151.9894   305.9055 H2            1 RES     
   15051 H2        -212.7399  -147.8660   304.8787 H2            1 RES     
   15052 N3        -210.3211  -151.4462   311.7150 N3            1 RES     
   15053 C0        -211.0512  -151.2831   310.6011 C0            1 RES     
   15054 C0        -210.8236  -151.9540   309.3087 C0            1 RES     
   15055 C0        -209.6414  -152.8295   309.4508 C0            1 RES     
   15056 N3        -209.1139  -153.6121   308.4567 N3            1 RES     
   15057 S1        -207.8379  -154.3855   309.1977 S1            1 RES     
   15058 N3        -207.8525  -153.7886   310.7383 N3            1 RES     
   15059 C0        -208.8991  -152.9528   310.7076 C0            1 RES     
   15060 C0        -209.2347  -152.2568   311.8430 C0            1 RES     
   15061 H4        -211.8486  -150.5840   310.7214 H4            1 RES     
   15062 C5        -230.3361  -147.0231   293.9793 C5            1 RES     
   15063 C5        -229.1283  -147.4963   294.8370 C5            1 RES     
   15064 C5        -227.7439  -147.3192   294.1312 C5            1 RES     
   15065 C5        -226.4100  -147.4728   295.0118 C5            1 RES     
   15066 C5        -225.9018  -148.8969   295.5016 C5            1 RES     
   15067 C5        -224.6762  -149.0949   296.6133 C5            1 RES     
   15068 C5        -223.0488  -148.9262   296.3754 C5            1 RES     
   15069 C5        -221.7120  -149.4665   297.3759 C5            1 RES     
   15070 C5        -220.8628  -148.7877   298.6905 C5            1 RES     
   15071 C5        -219.5772  -149.2259   299.8734 C5            1 RES     
   15072 C5        -217.8002  -149.2283   300.0043 C5            1 RES     
   15073 C5        -217.4817  -149.3612   298.4061 C5            1 RES     
   15074 C5        -218.0991  -150.5516   297.5395 C5            1 RES     
   15075 C5        -218.1767  -150.3020   295.9711 C5            1 RES     
   15076 C5        -218.6145  -151.5386   295.0962 C5            1 RES     
   15077 C5        -217.8032  -152.8230   295.3739 C5            1 RES     
   15078 C5        -216.2702  -152.6426   295.2586 C5            1 RES     
   15079 C5        -215.5865  -153.3857   294.1051 C5            1 RES     
   15080 C5        -216.0702  -152.9892   292.7145 C5            1 RES     
   15081 C5        -216.3811  -149.4141   301.3654 C5            1 RES     
   15082 C0        -215.7671  -150.1656   303.0653 C0            1 RES     
   15083 C5        -216.4849  -151.5395   303.0456 C5            1 RES     
   15084 C5        -217.9983  -151.5504   302.5118 C5            1 RES     
   15085 C5        -219.0297  -151.2016   303.5986 C5            1 RES     
   15086 C5        -218.7876  -149.9191   304.4275 C5            1 RES     
   15087 C5        -218.5766  -148.6208   303.6183 C5            1 RES     
   15088 C5        -218.6816  -147.3384   304.4335 C5            1 RES     
   15089 C5        -217.7455  -147.3388   305.6425 C5            1 RES     
   15090 C5        -218.0587  -146.1628   306.5619 C5            1 RES     
   15091 C5        -217.3494  -146.3650   307.8940 C5            1 RES     
   15092 C5        -217.7657  -145.3536   308.9373 C5            1 RES     
   15093 C5        -218.3272  -152.8879   301.7651 C5            1 RES     
   15094 C5        -219.5417  -153.0210   300.7680 C5            1 RES     
   15095 C5        -221.0169  -153.1236   301.2425 C5            1 RES     
   15096 C5        -221.2200  -154.2391   302.2759 C5            1 RES     
   15097 C5        -222.7039  -154.5839   302.5354 C5            1 RES     
   15098 C5        -222.8817  -155.4220   303.8207 C5            1 RES     
   15099 C5        -222.0997  -156.7510   303.8775 C5            1 RES     
   15100 C5        -222.5566  -157.8308   302.8788 C5            1 RES     
   15101 C5        -224.0124  -158.3057   303.0567 C5            1 RES     
   15102 C5        -224.2913  -158.9102   304.4357 C5            1 RES     
   15103 H6        -230.2608  -145.9409   293.7259 H6            1 RES     
   15104 H6        -230.4394  -147.5957   293.0330 H6            1 RES     
   15105 H6        -231.2902  -147.1457   294.5461 H6            1 RES     
   15106 H6        -229.1515  -146.8759   295.7572 H6            1 RES     
   15107 H6        -229.2903  -148.5584   295.1110 H6            1 RES     
   15108 H6        -227.7216  -147.9466   293.2115 H6            1 RES     
   15109 H6        -227.7588  -146.2596   293.7802 H6            1 RES     
   15110 H6        -226.5605  -146.8194   295.8930 H6            1 RES     
   15111 H6        -225.5953  -147.0490   294.3910 H6            1 RES     
   15112 H6        -225.7285  -149.5220   294.5940 H6            1 RES     
   15113 H6        -226.8172  -149.3286   295.9726 H6            1 RES     
   15114 H6        -224.7997  -150.1715   296.8656 H6            1 RES     
   15115 H6        -224.9819  -148.5094   297.4975 H6            1 RES     
   15116 H6        -222.9546  -149.5466   295.4493 H6            1 RES     
   15117 H6        -222.8713  -147.8883   296.0262 H6            1 RES     
   15118 H6        -220.9476  -149.5754   296.5787 H6            1 RES     
   15119 H6        -222.0215  -150.5048   297.6225 H6            1 RES     
   15120 H6        -220.6000  -147.7750   298.3212 H6            1 RES     
   15121 H6        -221.7393  -148.6571   299.3573 H6            1 RES     
   15122 H6        -219.9242  -150.2017   300.2266 H6            1 RES     
   15123 H6        -219.8421  -148.5145   300.6667 H6            1 RES     
   15124 H6        -217.6739  -148.1223   300.0032 H6            1 RES     
   15125 H6        -216.4120  -149.2077   298.1594 H6            1 RES     
   15126 H6        -217.9933  -148.4809   297.9343 H6            1 RES     
   15127 H6        -219.1448  -150.7746   297.8300 H6            1 RES     
   15128 H6        -217.4854  -151.4412   297.7495 H6            1 RES     
   15129 H6        -217.2067  -149.9353   295.5960 H6            1 RES     
   15130 H6        -218.8877  -149.4783   295.7276 H6            1 RES     
   15131 H6        -218.5345  -151.2856   294.0112 H6            1 RES     
   15132 H6        -219.6876  -151.7797   295.2778 H6            1 RES     
   15133 H6        -218.0477  -153.1106   296.4153 H6            1 RES     
   15134 H6        -218.1537  -153.6851   294.7607 H6            1 RES     
   15135 H6        -215.9747  -151.5809   295.2243 H6            1 RES     
   15136 H6        -215.8229  -153.0494   296.1896 H6            1 RES     
   15137 H6        -215.7248  -154.4791   294.2386 H6            1 RES     
   15138 H6        -214.4984  -153.1626   294.1734 H6            1 RES     
   15139 H6        -215.9450  -151.8998   292.5453 H6            1 RES     
   15140 H6        -215.4643  -153.5383   291.9607 H6            1 RES     
   15141 H6        -217.1339  -153.2712   292.5754 H6            1 RES     
   15142 H6        -216.1923  -148.3370   301.5776 H6            1 RES     
   15143 H6        -215.5127  -149.6164   300.7034 H6            1 RES     
   15144 H6        -215.8469  -152.1261   302.3571 H6            1 RES     
   15145 H6        -216.4353  -152.0011   304.0514 H6            1 RES     
   15146 H6        -218.1553  -150.8318   301.7293 H6            1 RES     
   15147 H6        -220.0151  -151.1037   303.1097 H6            1 RES     
   15148 H6        -219.0829  -152.0438   304.3142 H6            1 RES     
   15149 H6        -219.6842  -149.7959   305.0700 H6            1 RES     
   15150 H6        -217.9079  -150.0909   305.0827 H6            1 RES     
   15151 H6        -217.5756  -148.5996   303.2349 H6            1 RES     
   15152 H6        -219.2976  -148.5601   302.7875 H6            1 RES     
   15153 H6        -218.4445  -146.4647   303.7829 H6            1 RES     
   15154 H6        -219.7334  -147.2553   304.7712 H6            1 RES     
   15155 H6        -217.9435  -148.2551   306.2299 H6            1 RES     
   15156 H6        -216.6755  -147.3418   305.3320 H6            1 RES     
   15157 H6        -217.7648  -145.1998   306.0888 H6            1 RES     
   15158 H6        -219.1514  -146.1581   306.7576 H6            1 RES     
   15159 H6        -216.2698  -146.2591   307.7226 H6            1 RES     
   15160 H6        -217.5943  -147.3779   308.2936 H6            1 RES     
   15161 H6        -217.4744  -144.3362   308.6097 H6            1 RES     
   15162 H6        -217.2524  -145.5991   309.8917 H6            1 RES     
   15163 H6        -218.8628  -145.4096   309.0960 H6            1 RES     
   15164 H6        -218.3146  -153.7330   302.4764 H6            1 RES     
   15165 H6        -217.4669  -153.0214   301.0706 H6            1 RES     
   15166 H6        -219.4781  -152.2492   299.9778 H6            1 RES     
   15167 H6        -219.3647  -153.9764   300.2278 H6            1 RES     
   15168 H6        -221.4041  -152.1614   301.6378 H6            1 RES     
   15169 H6        -221.6273  -153.3639   300.3384 H6            1 RES     
   15170 H6        -220.7430  -153.8902   303.2143 H6            1 RES     
   15171 H6        -220.7186  -155.1657   301.9244 H6            1 RES     
   15172 H6        -223.1373  -155.1095   301.6532 H6            1 RES     
   15173 H6        -223.2866  -153.6489   302.6851 H6            1 RES     
   15174 H6        -223.9612  -155.6108   304.0008 H6            1 RES     
   15175 H6        -222.5220  -154.7946   304.6646 H6            1 RES     
   15176 H6        -222.1817  -157.1600   304.9051 H6            1 RES     
   15177 H6        -221.0204  -156.5491   303.7188 H6            1 RES     
   15178 H6        -222.4242  -157.4550   301.8425 H6            1 RES     
   15179 H6        -221.8890  -158.7124   303.0023 H6            1 RES     
   15180 H6        -224.7172  -157.4693   302.8719 H6            1 RES     
   15181 H6        -224.2116  -159.0891   302.2935 H6            1 RES     
   15182 H6        -223.6082  -159.7640   304.6320 H6            1 RES     
   15183 H6        -224.1733  -158.1526   305.2373 H6            1 RES     
   15184 H6        -225.3382  -159.2781   304.4737 H6            1 RES     
   15185 C0        -206.2206  -150.4268   315.6563 C0            1 RES     
   15186 C0        -207.9855  -149.9101   315.8545 C0            1 RES     
   15187 C0        -208.7586  -151.0400   316.0897 C0            1 RES     
   15188 S1        -210.4601  -150.8235   315.9898 S1            1 RES     
   15189 C0        -210.6105  -149.2150   315.6087 C0            1 RES     
   15190 C0        -209.1103  -148.8041   315.5929 C0            1 RES     
   15191 C0        -208.0359  -152.2778   315.7944 C0            1 RES     
   15192 C0        -206.9529  -151.6126   314.9605 C0            1 RES     
   15193 C0        -207.2606  -151.6508   313.6355 C0            1 RES     
   15194 C0        -208.3756  -152.4156   313.3013 C0            1 RES     
   15195 S1        -209.1113  -153.2605   314.6743 S1            1 RES     
   15196 H2        -208.8915  -147.7939   315.2684 H2            1 RES     
   15197 H2        -206.8266  -150.9873   312.9054 H2            1 RES     
   15198 N3        -214.5292  -149.5715   314.9230 N3            1 RES     
   15199 C0        -213.2175  -149.7663   315.1281 C0            1 RES     
   15200 C0        -212.2062  -148.7145   315.3352 C0            1 RES     
   15201 C0        -212.8883  -147.4053   315.2648 C0            1 RES     
   15202 N3        -212.2755  -146.1868   315.4021 N3            1 RES     
   15203 S1        -213.5283  -145.0970   315.2675 S1            1 RES     
   15204 N3        -214.8554  -146.0472   315.0113 N3            1 RES     
   15205 C0        -214.3302  -147.2795   315.0391 C0            1 RES     
   15206 C0        -215.1545  -148.3636   314.8627 C0            1 RES     
   15207 H4        -212.9407  -150.7971   315.1196 H4            1 RES     
   15208 C5        -190.3903  -159.5625   322.1491 C5            1 RES     
   15209 C5        -191.6817  -158.7515   321.8439 C5            1 RES     
   15210 C5        -191.4959  -157.6591   320.7402 C5            1 RES     
   15211 C5        -192.8055  -156.9723   320.1144 C5            1 RES     
   15212 C5        -193.6509  -155.9043   320.9335 C5            1 RES     
   15213 C5        -195.1418  -155.3479   320.4388 C5            1 RES     
   15214 C5        -195.4755  -154.2551   319.2438 C5            1 RES     
   15215 C5        -196.9545  -153.3658   318.9249 C5            1 RES     
   15216 C5        -198.3678  -153.6948   318.0281 C5            1 RES     
   15217 C5        -199.9816  -152.9717   317.6864 C5            1 RES     
   15218 C5        -200.7343  -151.8035   316.5713 C5            1 RES     
   15219 C5        -199.3927  -150.9174   316.2738 C5            1 RES     
   15220 C5        -198.5516  -150.2706   317.4668 C5            1 RES     
   15221 C5        -197.0395  -149.9079   317.1346 C5            1 RES     
   15222 C5        -196.2615  -149.1061   318.2472 C5            1 RES     
   15223 C5        -196.9980  -147.8416   318.7409 C5            1 RES     
   15224 C5        -197.4095  -146.8656   317.6121 C5            1 RES     
   15225 C5        -196.6992  -145.5070   317.6003 C5            1 RES     
   15226 C5        -195.1850  -145.5797   317.4369 C5            1 RES     
   15227 C5        -202.5223  -151.2136   315.9745 C5            1 RES     
   15228 C0        -204.4213  -150.9407   316.3627 C0            1 RES     
   15229 C5        -204.3533  -150.5562   317.8629 C5            1 RES     
   15230 C5        -203.3246  -151.3886   318.7707 C5            1 RES     
   15231 C5        -203.9087  -152.7113   319.2960 C5            1 RES     
   15232 C5        -204.5679  -153.6591   318.2676 C5            1 RES     
   15233 C5        -203.7022  -154.0392   317.0465 C5            1 RES     
   15234 C5        -204.2254  -155.2191   316.2378 C5            1 RES     
   15235 C5        -205.6736  -155.0211   315.7892 C5            1 RES     
   15236 C5        -206.2349  -156.3143   315.2069 C5            1 RES     
   15237 C5        -207.7463  -156.1887   315.0714 C5            1 RES     
   15238 C5        -208.4099  -157.4936   314.6952 C5            1 RES     
   15239 C5        -202.7186  -150.4954   319.9064 C5            1 RES     
   15240 C5        -201.3869  -150.8769   320.6599 C5            1 RES     
   15241 C5        -201.3158  -151.9939   321.7365 C5            1 RES     
   15242 C5        -202.3638  -151.8058   322.8410 C5            1 RES     
   15243 C5        -202.1274  -152.6972   324.0811 C5            1 RES     
   15244 C5        -203.3754  -152.7592   324.9892 C5            1 RES     
   15245 C5        -203.9043  -151.4058   325.5085 C5            1 RES     
   15246 C5        -202.9818  -150.6709   326.4988 C5            1 RES     
   15247 C5        -202.6996  -151.4309   327.8099 C5            1 RES     
   15248 C5        -203.9632  -151.7439   328.6163 C5            1 RES     
   15249 H6        -190.0215  -160.1020   321.2469 H6            1 RES     
   15250 H6        -189.5661  -158.9254   322.5347 H6            1 RES     
   15251 H6        -190.5925  -160.3445   322.9199 H6            1 RES     
   15252 H6        -192.4297  -159.4958   321.4994 H6            1 RES     
   15253 H6        -192.0357  -158.2915   322.7886 H6            1 RES     
   15254 H6        -190.7491  -156.9113   321.0907 H6            1 RES     
   15255 H6        -191.0085  -158.2103   319.9008 H6            1 RES     
   15256 H6        -193.4674  -157.8100   319.8212 H6            1 RES     
   15257 H6        -192.4589  -156.4561   319.1966 H6            1 RES     
   15258 H6        -192.9685  -155.0591   321.1875 H6            1 RES     
   15259 H6        -193.8246  -156.4295   321.9031 H6            1 RES     
   15260 H6        -195.4916  -154.8444   321.3672 H6            1 RES     
   15261 H6        -195.7615  -156.2500   320.2965 H6            1 RES     
   15262 H6        -194.7472  -153.4602   319.5422 H6            1 RES     
   15263 H6        -195.0613  -154.6618   318.2984 H6            1 RES     
   15264 H6        -196.5069  -152.4831   318.4228 H6            1 RES     
   15265 H6        -197.2271  -153.0115   319.9421 H6            1 RES     
   15266 H6        -197.9691  -154.0200   317.0450 H6            1 RES     
   15267 H6        -198.6521  -154.6202   318.5691 H6            1 RES     
   15268 H6        -200.3301  -152.7216   318.6931 H6            1 RES     
   15269 H6        -200.5131  -153.8922   317.4112 H6            1 RES     
   15270 H6        -200.6129  -152.4154   315.6495 H6            1 RES     
   15271 H6        -199.5223  -150.1930   315.4448 H6            1 RES     
   15272 H6        -198.6440  -151.6508   315.8726 H6            1 RES     
   15273 H6        -198.4813  -150.9507   318.3387 H6            1 RES     
   15274 H6        -199.0964  -149.3659   317.7780 H6            1 RES     
   15275 H6        -196.9834  -149.3394   316.1912 H6            1 RES     
   15276 H6        -196.4391  -150.8252   316.9315 H6            1 RES     
   15277 H6        -195.2510  -148.8145   317.8710 H6            1 RES     
   15278 H6        -196.0837  -149.7536   319.1370 H6            1 RES     
   15279 H6        -197.9150  -148.2077   319.2429 H6            1 RES     
   15280 H6        -196.4365  -147.3124   319.5451 H6            1 RES     
   15281 H6        -197.3242  -147.3218   316.6119 H6            1 RES     
   15282 H6        -198.4883  -146.6431   317.7503 H6            1 RES     
   15283 H6        -196.9366  -144.9596   318.5364 H6            1 RES     
   15284 H6        -197.1156  -144.9292   316.7453 H6            1 RES     
   15285 H6        -194.9106  -146.1205   316.5078 H6            1 RES     
   15286 H6        -194.7869  -144.5431   317.3760 H6            1 RES     
   15287 H6        -194.7207  -146.0778   318.3126 H6            1 RES     
   15288 H6        -202.6242  -151.8427   315.0608 H6            1 RES     
   15289 H6        -202.2503  -150.2502   315.4937 H6            1 RES     
   15290 H6        -204.0325  -149.4978   317.8180 H6            1 RES     
   15291 H6        -205.3680  -150.5984   318.3055 H6            1 RES     
   15292 H6        -202.4394  -151.6638   318.2285 H6            1 RES     
   15293 H6        -203.0927  -153.2679   319.7899 H6            1 RES     
   15294 H6        -204.6759  -152.4772   320.0580 H6            1 RES     
   15295 H6        -204.8236  -154.5847   318.8241 H6            1 RES     
   15296 H6        -205.5107  -153.1888   317.9176 H6            1 RES     
   15297 H6        -203.7010  -153.2282   316.3452 H6            1 RES     
   15298 H6        -202.6703  -154.2666   317.3583 H6            1 RES     
   15299 H6        -203.5788  -155.3713   315.3424 H6            1 RES     
   15300 H6        -204.1507  -156.1141   316.8865 H6            1 RES     
   15301 H6        -206.2822  -154.7923   316.6843 H6            1 RES     
   15302 H6        -205.7679  -154.1743   315.0713 H6            1 RES     
   15303 H6        -205.7590  -156.5488   314.2292 H6            1 RES     
   15304 H6        -206.0265  -157.1357   315.9239 H6            1 RES     
   15305 H6        -207.9560  -155.4549   314.2817 H6            1 RES     
   15306 H6        -208.1794  -155.8623   316.0469 H6            1 RES     
   15307 H6        -208.0591  -157.8176   313.6956 H6            1 RES     
   15308 H6        -209.5096  -157.3367   314.6716 H6            1 RES     
   15309 H6        -208.1747  -158.2662   315.4568 H6            1 RES     
   15310 H6        -203.5057  -150.2130   320.6282 H6            1 RES     
   15311 H6        -202.4035  -149.5692   319.3744 H6            1 RES     
   15312 H6        -200.5650  -151.0322   319.9357 H6            1 RES     
   15313 H6        -201.0942  -149.9549   321.2077 H6            1 RES     
   15314 H6        -201.3990  -153.0110   321.2999 H6            1 RES     
   15315 H6        -200.3005  -151.9288   322.1979 H6            1 RES     
   15316 H6        -203.3470  -152.0433   322.3863 H6            1 RES     
   15317 H6        -202.3561  -150.7492   323.1831 H6            1 RES     
   15318 H6        -201.2379  -152.3389   324.6492 H6            1 RES     
   15319 H6        -201.9187  -153.7409   323.7597 H6            1 RES     
   15320 H6        -203.1861  -153.4436   325.8430 H6            1 RES     
   15321 H6        -204.1880  -153.2182   324.3859 H6            1 RES     
   15322 H6        -204.8845  -151.5792   325.9975 H6            1 RES     
   15323 H6        -204.1112  -150.7376   324.6474 H6            1 RES     
   15324 H6        -202.0165  -150.4389   326.0018 H6            1 RES     
   15325 H6        -203.4648  -149.7027   326.7589 H6            1 RES     
   15326 H6        -202.1535  -152.3735   327.6005 H6            1 RES     
   15327 H6        -202.0416  -150.7932   328.4395 H6            1 RES     
   15328 H6        -204.5147  -150.8093   328.8543 H6            1 RES     
   15329 H6        -204.6315  -152.4349   328.0629 H6            1 RES     
   15330 H6        -203.6812  -152.2409   329.5683 H6            1 RES     
   15331 C0        -219.4707  -148.8537   312.0157 C0            1 RES     
   15332 C0        -218.9492  -150.4590   312.7721 C0            1 RES     
   15333 C0        -219.0602  -150.3596   314.1532 C0            1 RES     
   15334 S1        -218.3311  -151.6228   315.0611 S1            1 RES     
   15335 C0        -217.6855  -152.6024   313.8869 C0            1 RES     
   15336 C0        -218.1428  -151.8309   312.6159 C0            1 RES     
   15337 C0        -219.2296  -148.9756   314.5978 C0            1 RES     
   15338 C0        -218.7457  -148.3507   313.2994 C0            1 RES     
   15339 C0        -217.4194  -148.0525   313.3624 C0            1 RES     
   15340 C0        -216.8291  -148.2092   314.6141 C0            1 RES     
   15341 S1        -217.9608  -148.6804   315.8939 S1            1 RES     
   15342 H2        -217.7701  -152.2008   311.6683 H2            1 RES     
   15343 H2        -216.8009  -147.9081   312.4918 H2            1 RES     
   15344 N3        -215.7135  -154.8051   316.5725 N3            1 RES     
   15345 C0        -216.3980  -153.8605   315.9096 C0            1 RES     
   15346 C0        -216.7912  -153.9094   314.4901 C0            1 RES     
   15347 C0        -216.2882  -155.1770   313.9206 C0            1 RES     
   15348 N3        -216.4506  -155.5781   312.6199 N3            1 RES     
   15349 S1        -215.7183  -157.0737   312.5731 S1            1 RES     
   15350 N3        -215.1523  -157.2868   314.1107 N3            1 RES     
   15351 C0        -215.5487  -156.1595   314.7165 C0            1 RES     
   15352 C0        -215.2550  -155.9736   316.0451 C0            1 RES     
   15353 H4        -216.6425  -153.0169   316.5160 H4            1 RES     
   15354 C5        -232.4529  -134.6354   309.6663 C5            1 RES     
   15355 C5        -231.5912  -135.9189   309.8355 C5            1 RES     
   15356 C5        -230.4756  -136.0785   308.7511 C5            1 RES     
   15357 C5        -229.3301  -137.1788   308.9870 C5            1 RES     
   15358 C5        -229.6258  -138.7308   308.8138 C5            1 RES     
   15359 C5        -228.5563  -139.9205   309.2806 C5            1 RES     
   15360 C5        -227.1718  -140.4021   308.5159 C5            1 RES     
   15361 C5        -226.2190  -141.8583   308.7435 C5            1 RES     
   15362 C5        -224.9384  -142.2886   309.7850 C5            1 RES     
   15363 C5        -223.9416  -143.7236   310.2221 C5            1 RES     
   15364 C5        -222.4706  -144.5685   309.6769 C5            1 RES     
   15365 C5        -222.5404  -144.1024   308.1112 C5            1 RES     
   15366 C5        -223.8435  -144.3723   307.2290 C5            1 RES     
   15367 C5        -224.0201  -143.4464   305.9484 C5            1 RES     
   15368 C5        -225.2034  -143.8280   304.9786 C5            1 RES     
   15369 C5        -225.2082  -145.3107   304.5469 C5            1 RES     
   15370 C5        -223.8745  -145.7959   303.9287 C5            1 RES     
   15371 C5        -223.9130  -146.1644   302.4410 C5            1 RES     
   15372 C5        -224.3113  -145.0237   301.5109 C5            1 RES     
   15373 C5        -221.1963  -145.9450   310.2952 C5            1 RES     
   15374 C0        -220.8387  -147.5574   311.3458 C0            1 RES     
   15375 C5        -222.1897  -148.3024   311.1936 C5            1 RES     
   15376 C5        -223.5174  -147.4052   311.2820 C5            1 RES     
   15377 C5        -223.9921  -147.1609   312.7247 C5            1 RES     
   15378 C5        -222.9506  -146.6367   313.7401 C5            1 RES     
   15379 C5        -222.1883  -145.3584   313.3279 C5            1 RES     
   15380 C5        -221.4326  -144.6749   314.4599 C5            1 RES     
   15381 C5        -220.4744  -145.6259   315.1778 C5            1 RES     
   15382 C5        -219.9309  -144.9798   316.4479 C5            1 RES     
   15383 C5        -219.2500  -146.0426   317.2995 C5            1 RES     
   15384 C5        -218.8620  -145.5343   318.6691 C5            1 RES     
   15385 C5        -224.6471  -147.9705   310.3552 C5            1 RES     
   15386 C5        -225.8727  -147.0947   309.8886 C5            1 RES     
   15387 C5        -227.0583  -146.7340   310.8246 C5            1 RES     
   15388 C5        -227.6768  -147.9730   311.4849 C5            1 RES     
   15389 C5        -229.0382  -147.7017   312.1639 C5            1 RES     
   15390 C5        -229.4418  -148.8475   313.1179 C5            1 RES     
   15391 C5        -229.5308  -150.2539   312.4892 C5            1 RES     
   15392 C5        -230.6625  -150.4498   311.4632 C5            1 RES     
   15393 C5        -232.0862  -150.2560   312.0218 C5            1 RES     
   15394 C5        -232.4279  -151.2169   313.1641 C5            1 RES     
   15395 H6        -231.8322  -133.7127   309.7312 H6            1 RES     
   15396 H6        -233.0065  -134.6155   308.7034 H6            1 RES     
   15397 H6        -233.2092  -134.5614   310.4843 H6            1 RES     
   15398 H6        -231.1187  -135.8341   310.8363 H6            1 RES     
   15399 H6        -232.2683  -136.7969   309.8268 H6            1 RES     
   15400 H6        -230.9526  -136.1687   307.7490 H6            1 RES     
   15401 H6        -229.9567  -135.0902   308.7568 H6            1 RES     
   15402 H6        -228.9495  -136.9948   310.0103 H6            1 RES     
   15403 H6        -228.5293  -136.9324   308.2611 H6            1 RES     
   15404 H6        -229.9763  -138.8912   307.7670 H6            1 RES     
   15405 H6        -230.5372  -138.8723   309.4428 H6            1 RES     
   15406 H6        -229.2134  -140.8172   309.2343 H6            1 RES     
   15407 H6        -228.3396  -139.7222   310.3445 H6            1 RES     
   15408 H6        -227.5872  -140.5156   307.4835 H6            1 RES     
   15409 H6        -226.5075  -139.5164   308.4455 H6            1 RES     
   15410 H6        -225.7829  -141.9264   307.7252 H6            1 RES     
   15411 H6        -227.0077  -142.6404   308.7723 H6            1 RES     
   15412 H6        -224.2216  -141.4512   309.6579 H6            1 RES     
   15413 H6        -225.4749  -142.0961   310.7364 H6            1 RES     
   15414 H6        -224.7092  -144.4879   310.3772 H6            1 RES     
   15415 H6        -223.6363  -143.4047   311.2275 H6            1 RES     
   15416 H6        -221.7546  -143.7618   309.9522 H6            1 RES     
   15417 H6        -221.6212  -144.3456   307.5415 H6            1 RES     
   15418 H6        -222.5459  -142.9807   308.1426 H6            1 RES     
   15419 H6        -224.7746  -144.2134   307.8082 H6            1 RES     
   15420 H6        -223.8017  -145.4300   306.9263 H6            1 RES     
   15421 H6        -223.0847  -143.4223   305.3648 H6            1 RES     
   15422 H6        -224.1832  -142.3823   306.2385 H6            1 RES     
   15423 H6        -225.1718  -143.1839   304.0666 H6            1 RES     
   15424 H6        -226.1843  -143.6226   305.4667 H6            1 RES     
   15425 H6        -225.4002  -145.8898   305.4714 H6            1 RES     
   15426 H6        -226.0706  -145.5553   303.8847 H6            1 RES     
   15427 H6        -223.0502  -145.0838   304.0989 H6            1 RES     
   15428 H6        -223.5854  -146.7244   304.4642 H6            1 RES     
   15429 H6        -224.6106  -147.0148   302.2906 H6            1 RES     
   15430 H6        -222.8898  -146.5014   302.1624 H6            1 RES     
   15431 H6        -223.6323  -144.1548   301.6337 H6            1 RES     
   15432 H6        -224.2417  -145.3842   300.4612 H6            1 RES     
   15433 H6        -225.3587  -144.7118   301.7010 H6            1 RES     
   15434 H6        -220.4110  -145.2832   310.7268 H6            1 RES     
   15435 H6        -220.7053  -146.1920   309.3302 H6            1 RES     
   15436 H6        -222.1041  -148.7353   310.1785 H6            1 RES     
   15437 H6        -222.2437  -149.1310   311.9267 H6            1 RES     
   15438 H6        -223.3727  -146.4280   310.8606 H6            1 RES     
   15439 H6        -224.8210  -146.4321   312.6883 H6            1 RES     
   15440 H6        -224.3876  -148.1118   313.1291 H6            1 RES     
   15441 H6        -223.5115  -146.4302   314.6752 H6            1 RES     
   15442 H6        -222.2223  -147.4503   313.9406 H6            1 RES     
   15443 H6        -221.4206  -145.6135   312.6244 H6            1 RES     
   15444 H6        -222.8768  -144.6234   312.8811 H6            1 RES     
   15445 H6        -220.8590  -143.8095   314.0538 H6            1 RES     
   15446 H6        -222.1914  -144.2956   315.1725 H6            1 RES     
   15447 H6        -221.0497  -146.5137   315.5013 H6            1 RES     
   15448 H6        -219.6519  -145.9629   314.5059 H6            1 RES     
   15449 H6        -219.2329  -144.1488   316.2033 H6            1 RES     
   15450 H6        -220.7893  -144.5805   317.0276 H6            1 RES     
   15451 H6        -218.3371  -146.3608   316.7784 H6            1 RES     
   15452 H6        -219.9473  -146.9015   317.4467 H6            1 RES     
   15453 H6        -218.1127  -144.7244   318.5695 H6            1 RES     
   15454 H6        -218.4259  -146.3765   319.2479 H6            1 RES     
   15455 H6        -219.7638  -145.1639   319.1999 H6            1 RES     
   15456 H6        -224.9912  -148.9508   310.7306 H6            1 RES     
   15457 H6        -224.1298  -148.1458   309.3847 H6            1 RES     
   15458 H6        -225.5197  -146.1700   309.3940 H6            1 RES     
   15459 H6        -226.3443  -147.6774   309.0676 H6            1 RES     
   15460 H6        -226.7778  -145.9887   311.5979 H6            1 RES     
   15461 H6        -227.8350  -146.2498   310.1842 H6            1 RES     
   15462 H6        -226.9433  -148.3287   312.2367 H6            1 RES     
   15463 H6        -227.8373  -148.7603   310.7181 H6            1 RES     
   15464 H6        -229.8250  -147.5277   311.3938 H6            1 RES     
   15465 H6        -228.9718  -146.7821   312.7854 H6            1 RES     
   15466 H6        -230.3992  -148.5979   313.6222 H6            1 RES     
   15467 H6        -228.6650  -148.8925   313.9113 H6            1 RES     
   15468 H6        -229.6596  -150.9932   313.3058 H6            1 RES     
   15469 H6        -228.5628  -150.5027   312.0075 H6            1 RES     
   15470 H6        -230.5123  -149.7548   310.6105 H6            1 RES     
   15471 H6        -230.5862  -151.4867   311.0666 H6            1 RES     
   15472 H6        -232.2279  -149.2108   312.3650 H6            1 RES     
   15473 H6        -232.8056  -150.4394   311.1943 H6            1 RES     
   15474 H6        -232.3118  -152.2713   312.8340 H6            1 RES     
   15475 H6        -231.7831  -151.0348   314.0481 H6            1 RES     
   15476 H6        -233.4808  -151.0582   313.4789 H6            1 RES     
   15477 C0        -211.1674  -157.5734   318.8213 C0            1 RES     
   15478 C0        -212.2906  -156.4793   319.8024 C0            1 RES     
   15479 C0        -213.5106  -157.1229   319.9665 C0            1 RES     
   15480 S1        -214.7963  -156.1584   320.5736 S1            1 RES     
   15481 C0        -214.0887  -154.6690   320.7635 C0            1 RES     
   15482 C0        -212.6381  -155.0043   320.3126 C0            1 RES     
   15483 C0        -213.6538  -158.2756   319.0763 C0            1 RES     
   15484 C0        -212.5343  -157.8649   318.1336 C0            1 RES     
   15485 C0        -213.0193  -157.1698   317.0689 C0            1 RES     
   15486 C0        -214.4074  -157.1249   316.9649 C0            1 RES     
   15487 S1        -215.2565  -158.0686   318.2014 S1            1 RES     
   15488 H2        -211.9515  -154.1693   320.2404 H2            1 RES     
   15489 H2        -212.4142  -156.5199   316.4581 H2            1 RES     
   15490 N3        -217.5967  -152.9113   321.5103 N3            1 RES     
   15491 C0        -216.6006  -153.7336   321.1471 C0            1 RES     
   15492 C0        -215.1584  -153.4525   321.2613 C0            1 RES     
   15493 C0        -215.0011  -152.0996   321.8351 C0            1 RES     
   15494 N3        -213.8032  -151.4817   322.0845 N3            1 RES     
   15495 S1        -214.2438  -150.0192   322.7495 S1            1 RES     
   15496 N3        -215.8955  -150.0598   322.7389 N3            1 RES     
   15497 C0        -216.1451  -151.2645   322.2083 C0            1 RES     
   15498 C0        -217.4476  -151.6670   322.0422 C0            1 RES     
   15499 H4        -216.9472  -154.6554   320.7355 H4            1 RES     
   15500 C5        -202.2609  -174.5706   315.9959 C5            1 RES     
   15501 C5        -202.9151  -173.2326   316.4434 C5            1 RES     
   15502 C5        -202.3348  -171.9728   315.7209 C5            1 RES     
   15503 C5        -203.1240  -170.5809   315.8563 C5            1 RES     
   15504 C5        -203.0912  -169.7392   317.2042 C5            1 RES     
   15505 C5        -204.0798  -168.4273   317.4844 C5            1 RES     
   15506 C5        -203.9382  -166.8971   316.8744 C5            1 RES     
   15507 C5        -204.7044  -165.4091   317.4024 C5            1 RES     
   15508 C5        -206.1849  -164.6427   317.0407 C5            1 RES     
   15509 C5        -207.1569  -163.2146   317.5502 C5            1 RES     
   15510 C5        -207.3029  -161.4760   317.1882 C5            1 RES     
   15511 C5        -205.7638  -161.2458   316.6867 C5            1 RES     
   15512 C5        -204.5270  -161.6434   317.6147 C5            1 RES     
   15513 C5        -203.1442  -161.8808   316.8664 C5            1 RES     
   15514 C5        -201.8859  -162.0941   317.7924 C5            1 RES     
   15515 C5        -201.7074  -161.0027   318.8704 C5            1 RES     
   15516 C5        -201.6835  -159.5586   318.3135 C5            1 RES     
   15517 C5        -200.3523  -158.8083   318.4363 C5            1 RES     
   15518 C5        -199.1820  -159.4611   317.7088 C5            1 RES     
   15519 C5        -208.5320  -159.9614   317.4985 C5            1 RES     
   15520 C0        -209.8694  -159.0825   318.6255 C0            1 RES     
   15521 C5        -209.3602  -159.4797   320.0348 C5            1 RES     
   15522 C5        -208.8358  -160.9863   320.2097 C5            1 RES     
   15523 C5        -209.9618  -161.9925   320.5031 C5            1 RES     
   15524 C5        -211.1904  -161.9830   319.5646 C5            1 RES     
   15525 C5        -210.8899  -162.1189   318.0559 C5            1 RES     
   15526 C5        -212.1009  -162.4480   317.1927 C5            1 RES     
   15527 C5        -213.2459  -161.4546   317.3930 C5            1 RES     
   15528 C5        -214.5145  -161.9558   316.7104 C5            1 RES     
   15529 C5        -215.7010  -161.1302   317.1890 C5            1 RES     
   15530 C5        -217.0266  -161.6869   316.7225 C5            1 RES     
   15531 C5        -207.6636  -161.0625   321.2465 C5            1 RES     
   15532 C5        -206.6666  -162.2829   321.3046 C5            1 RES     
   15533 C5        -207.0550  -163.6634   321.9007 C5            1 RES     
   15534 C5        -207.6296  -163.5448   323.3182 C5            1 RES     
   15535 C5        -207.7317  -164.8951   324.0630 C5            1 RES     
   15536 C5        -208.6397  -164.7958   325.3086 C5            1 RES     
   15537 C5        -208.2383  -163.7382   326.3581 C5            1 RES     
   15538 C5        -206.9187  -164.0130   327.1031 C5            1 RES     
   15539 C5        -206.8991  -165.3128   327.9317 C5            1 RES     
   15540 C5        -207.9753  -165.3570   329.0202 C5            1 RES     
   15541 H6        -202.4035  -174.7530   314.9062 H6            1 RES     
   15542 H6        -201.1728  -174.6095   316.2158 H6            1 RES     
   15543 H6        -202.7358  -175.4334   316.5219 H6            1 RES     
   15544 H6        -203.9938  -173.3292   316.2002 H6            1 RES     
   15545 H6        -202.7977  -173.1376   317.5419 H6            1 RES     
   15546 H6        -201.2541  -171.8755   315.9710 H6            1 RES     
   15547 H6        -202.3769  -172.2446   314.6391 H6            1 RES     
   15548 H6        -204.1761  -170.8112   315.5989 H6            1 RES     
   15549 H6        -202.7020  -169.9238   315.0696 H6            1 RES     
   15550 H6        -202.0246  -169.4948   317.4216 H6            1 RES     
   15551 H6        -203.3687  -170.5028   317.9698 H6            1 RES     
   15552 H6        -203.9375  -168.2930   318.5796 H6            1 RES     
   15553 H6        -205.1087  -168.7934   317.3256 H6            1 RES     
   15554 H6        -202.8549  -166.7319   317.0992 H6            1 RES     
   15555 H6        -203.9770  -166.9769   315.7685 H6            1 RES     
   15556 H6        -203.9300  -164.6957   317.0516 H6            1 RES     
   15557 H6        -204.5676  -165.4647   318.5037 H6            1 RES     
   15558 H6        -206.1971  -164.6353   315.9313 H6            1 RES     
   15559 H6        -206.8432  -165.4789   317.3527 H6            1 RES     
   15560 H6        -207.1414  -163.3131   318.6399 H6            1 RES     
   15561 H6        -208.1453  -163.5749   317.2360 H6            1 RES     
   15562 H6        -207.6908  -161.5969   316.1519 H6            1 RES     
   15563 H6        -205.6011  -160.2555   316.2159 H6            1 RES     
   15564 H6        -205.6231  -161.9697   315.8408 H6            1 RES     
   15565 H6        -204.7067  -162.5920   318.1583 H6            1 RES     
   15566 H6        -204.4206  -160.8359   318.3556 H6            1 RES     
   15567 H6        -202.9346  -161.0433   316.1803 H6            1 RES     
   15568 H6        -203.1949  -162.7707   316.1965 H6            1 RES     
   15569 H6        -200.9594  -162.1460   317.1708 H6            1 RES     
   15570 H6        -201.9570  -163.0727   318.3213 H6            1 RES     
   15571 H6        -202.5788  -161.1062   319.5464 H6            1 RES     
   15572 H6        -200.8265  -161.1957   319.5253 H6            1 RES     
   15573 H6        -202.0271  -159.5073   317.2671 H6            1 RES     
   15574 H6        -202.4191  -158.9702   318.9009 H6            1 RES     
   15575 H6        -200.0926  -158.6929   319.5095 H6            1 RES     
   15576 H6        -200.5092  -157.7941   318.0062 H6            1 RES     
   15577 H6        -199.4067  -159.5908   316.6300 H6            1 RES     
   15578 H6        -198.2921  -158.8020   317.8102 H6            1 RES     
   15579 H6        -198.9386  -160.4436   318.1626 H6            1 RES     
   15580 H6        -209.1104  -160.0005   316.5473 H6            1 RES     
   15581 H6        -207.8529  -159.1170   317.2552 H6            1 RES     
   15582 H6        -208.5187  -158.7765   320.1854 H6            1 RES     
   15583 H6        -210.1413  -159.2611   320.7893 H6            1 RES     
   15584 H6        -208.3523  -161.3506   319.3227 H6            1 RES     
   15585 H6        -209.5246  -163.0063   320.4727 H6            1 RES     
   15586 H6        -210.3364  -161.8099   321.5280 H6            1 RES     
   15587 H6        -211.8231  -162.8388   319.8796 H6            1 RES     
   15588 H6        -211.7559  -161.0445   319.7437 H6            1 RES     
   15589 H6        -210.5518  -161.1757   317.6743 H6            1 RES     
   15590 H6        -210.1232  -162.8905   317.8811 H6            1 RES     
   15591 H6        -211.8007  -162.4542   316.1190 H6            1 RES     
   15592 H6        -212.4320  -163.4667   317.4752 H6            1 RES     
   15593 H6        -213.4726  -161.4053   318.4747 H6            1 RES     
   15594 H6        -212.9686  -160.4339   317.0427 H6            1 RES     
   15595 H6        -214.4126  -161.9142   315.6034 H6            1 RES     
   15596 H6        -214.6846  -163.0066   317.0250 H6            1 RES     
   15597 H6        -215.5923  -160.1147   316.7852 H6            1 RES     
   15598 H6        -215.7174  -161.1181   318.3049 H6            1 RES     
   15599 H6        -217.0800  -161.6500   315.6166 H6            1 RES     
   15600 H6        -217.8416  -161.0683   317.1559 H6            1 RES     
   15601 H6        -217.1407  -162.7313   317.0807 H6            1 RES     
   15602 H6        -208.0342  -160.8156   322.2574 H6            1 RES     
   15603 H6        -206.9782  -160.2433   320.9313 H6            1 RES     
   15604 H6        -206.1976  -162.4450   320.3158 H6            1 RES     
   15605 H6        -205.8286  -161.9370   321.9481 H6            1 RES     
   15606 H6        -207.7568  -164.2252   321.2497 H6            1 RES     
   15607 H6        -206.1157  -164.2661   321.9493 H6            1 RES     
   15608 H6        -208.6371  -163.0935   323.2132 H6            1 RES     
   15609 H6        -206.9828  -162.8768   323.9256 H6            1 RES     
   15610 H6        -206.7155  -165.2611   324.3380 H6            1 RES     
   15611 H6        -208.1913  -165.6578   323.3973 H6            1 RES     
   15612 H6        -208.7275  -165.7923   325.7908 H6            1 RES     
   15613 H6        -209.6546  -164.5265   324.9446 H6            1 RES     
   15614 H6        -209.0565  -163.6578   327.1025 H6            1 RES     
   15615 H6        -208.1750  -162.7433   325.8713 H6            1 RES     
   15616 H6        -206.0813  -164.0377   326.3744 H6            1 RES     
   15617 H6        -206.7347  -163.1608   327.7946 H6            1 RES     
   15618 H6        -207.0092  -166.1955   327.2691 H6            1 RES     
   15619 H6        -205.9073  -165.3861   328.4286 H6            1 RES     
   15620 H6        -207.8696  -164.4908   329.7078 H6            1 RES     
   15621 H6        -208.9929  -165.3544   328.5788 H6            1 RES     
   15622 H6        -207.8678  -166.2920   329.6093 H6            1 RES     
   15623 C0        -221.7010  -148.8772   320.9927 C0            1 RES     
   15624 C0        -222.0435  -150.6949   320.9966 C0            1 RES     
   15625 C0        -221.8576  -151.1822   322.2841 C0            1 RES     
   15626 S1        -221.8167  -152.8923   322.4445 S1            1 RES     
   15627 C0        -222.0208  -153.4190   320.8836 C0            1 RES     
   15628 C0        -222.1704  -152.0508   320.1587 C0            1 RES     
   15629 C0        -221.1576  -150.2264   323.1432 C0            1 RES     
   15630 C0        -220.6242  -149.3760   322.0017 C0            1 RES     
   15631 C0        -219.3656  -149.7573   321.6519 C0            1 RES     
   15632 C0        -218.7696  -150.6965   322.4901 C0            1 RES     
   15633 S1        -219.7498  -151.1327   323.9005 S1            1 RES     
   15634 H2        -222.2230  -152.0826   319.0771 H2            1 RES     
   15635 H2        -218.9200  -149.5310   320.6971 H2            1 RES     
   15636 N3        -221.2004  -157.2003   321.8747 N3            1 RES     
   15637 C0        -221.3422  -155.8671   321.8206 C0            1 RES     
   15638 C0        -221.9181  -155.1006   320.7013 C0            1 RES     
   15639 C0        -222.3012  -156.0576   319.6422 C0            1 RES     
   15640 N3        -222.8648  -155.7204   318.4390 N3            1 RES     
   15641 S1        -223.1032  -157.1886   317.6889 S1            1 RES     
   15642 N3        -222.5124  -158.2881   318.7715 N3            1 RES     
   15643 C0        -222.1143  -157.5037   319.7820 C0            1 RES     
   15644 C0        -221.5582  -158.0790   320.8982 C0            1 RES     
   15645 H4        -220.9771  -155.3712   322.6924 H4            1 RES     
   15646 C5        -224.7996  -131.0183   327.8971 C5            1 RES     
   15647 C5        -224.7801  -132.4744   327.3512 C5            1 RES     
   15648 C5        -224.1314  -132.6095   325.9346 C5            1 RES     
   15649 C5        -223.7678  -134.0777   325.3956 C5            1 RES     
   15650 C5        -224.8974  -135.0798   324.8994 C5            1 RES     
   15651 C5        -224.6085  -136.6868   324.5661 C5            1 RES     
   15652 C5        -223.8673  -137.3337   323.2373 C5            1 RES     
   15653 C5        -223.8598  -138.9905   322.6585 C5            1 RES     
   15654 C5        -222.8854  -140.3544   322.9752 C5            1 RES     
   15655 C5        -222.7965  -142.1074   322.5710 C5            1 RES     
   15656 C5        -222.1509  -143.1731   321.2975 C5            1 RES     
   15657 C5        -222.2007  -142.0832   320.0797 C5            1 RES     
   15658 C5        -223.5560  -141.3259   319.7072 C5            1 RES     
   15659 C5        -223.3924  -139.9572   318.9146 C5            1 RES     
   15660 C5        -224.7259  -139.3009   318.3879 C5            1 RES     
   15661 C5        -225.6209  -140.2625   317.5759 C5            1 RES     
   15662 C5        -224.8997  -140.9549   316.3941 C5            1 RES     
   15663 C5        -225.3740  -140.5638   314.9896 C5            1 RES     
   15664 C5        -225.2162  -139.0855   314.6511 C5            1 RES     
   15665 C5        -221.7740  -145.0836   320.9669 C5            1 RES     
   15666 C0        -222.2072  -146.9651   321.2890 C0            1 RES     
   15667 C5        -223.7479  -146.8813   321.4389 C5            1 RES     
   15668 C5        -224.3208  -145.6350   322.2720 C5            1 RES     
   15669 C5        -224.3417  -145.8762   323.7911 C5            1 RES     
   15670 C5        -223.0377  -146.3789   324.4524 C5            1 RES     
   15671 C5        -221.7727  -145.5361   324.1795 C5            1 RES     
   15672 C5        -220.5951  -145.8403   325.0963 C5            1 RES     
   15673 C5        -220.2245  -147.3238   325.0952 C5            1 RES     
   15674 C5        -219.2188  -147.6248   326.2017 C5            1 RES     
   15675 C5        -219.1152  -149.1323   326.3888 C5            1 RES     
   15676 C5        -218.2969  -149.5162   327.6003 C5            1 RES     
   15677 C5        -225.7054  -145.1647   321.7095 C5            1 RES     
   15678 C5        -226.2958  -143.7335   322.0093 C5            1 RES     
   15679 C5        -226.9141  -143.3448   323.3798 C5            1 RES     
   15680 C5        -228.0001  -144.3307   323.8294 C5            1 RES     
   15681 C5        -228.8527  -143.8197   325.0127 C5            1 RES     
   15682 C5        -229.6645  -144.9585   325.6686 C5            1 RES     
   15683 C5        -230.6175  -145.7359   324.7366 C5            1 RES     
   15684 C5        -231.8150  -144.9327   324.1954 C5            1 RES     
   15685 C5        -232.7807  -144.4012   325.2730 C5            1 RES     
   15686 C5        -233.4092  -145.5068   326.1260 C5            1 RES     
   15687 H6        -223.7708  -130.6021   327.9934 H6            1 RES     
   15688 H6        -225.3951  -130.3303   327.2598 H6            1 RES     
   15689 H6        -225.2451  -130.9902   328.9205 H6            1 RES     
   15690 H6        -224.1867  -133.0617   328.0826 H6            1 RES     
   15691 H6        -225.8212  -132.8557   327.3385 H6            1 RES     
   15692 H6        -224.7317  -132.0237   325.2022 H6            1 RES     
   15693 H6        -223.1588  -132.0710   326.0357 H6            1 RES     
   15694 H6        -223.1909  -134.5573   326.2100 H6            1 RES     
   15695 H6        -223.0937  -133.9168   324.5305 H6            1 RES     
   15696 H6        -225.4405  -134.5847   324.0601 H6            1 RES     
   15697 H6        -225.6193  -135.0670   325.7508 H6            1 RES     
   15698 H6        -225.6496  -137.0748   324.5073 H6            1 RES     
   15699 H6        -224.1510  -137.1008   325.4811 H6            1 RES     
   15700 H6        -224.4350  -136.7798   322.4485 H6            1 RES     
   15701 H6        -222.8451  -136.9055   323.1873 H6            1 RES     
   15702 H6        -223.7047  -138.7837   321.5793 H6            1 RES     
   15703 H6        -224.9329  -139.2645   322.7484 H6            1 RES     
   15704 H6        -221.8562  -139.9619   322.8417 H6            1 RES     
   15705 H6        -223.0642  -140.3903   324.0692 H6            1 RES     
   15706 H6        -223.8223  -142.4329   322.7695 H6            1 RES     
   15707 H6        -222.2093  -142.4405   323.4369 H6            1 RES     
   15708 H6        -221.0749  -142.9830   321.5098 H6            1 RES     
   15709 H6        -221.6761  -142.4255   319.1651 H6            1 RES     
   15710 H6        -221.5784  -141.2205   320.4371 H6            1 RES     
   15711 H6        -224.1355  -141.0483   320.6098 H6            1 RES     
   15712 H6        -224.1567  -142.0342   319.1158 H6            1 RES     
   15713 H6        -222.7087  -140.0921   318.0600 H6            1 RES     
   15714 H6        -222.8893  -139.1847   319.5418 H6            1 RES     
   15715 H6        -224.4894  -138.4075   317.7605 H6            1 RES     
   15716 H6        -225.3349  -138.9246   319.2423 H6            1 RES     
   15717 H6        -225.9504  -141.0399   318.2929 H6            1 RES     
   15718 H6        -226.5670  -139.7779   317.2412 H6            1 RES     
   15719 H6        -223.8044  -140.8396   316.4461 H6            1 RES     
   15720 H6        -225.0924  -142.0441   316.4874 H6            1 RES     
   15721 H6        -226.4392  -140.8516   314.8676 H6            1 RES     
   15722 H6        -224.7698  -141.1546   314.2656 H6            1 RES     
   15723 H6        -224.1603  -138.7627   314.7610 H6            1 RES     
   15724 H6        -225.5275  -138.9307   313.5947 H6            1 RES     
   15725 H6        -225.8683  -138.4643   315.2986 H6            1 RES     
   15726 H6        -220.6966  -145.1065   321.2491 H6            1 RES     
   15727 H6        -221.6647  -145.0640   319.8620 H6            1 RES     
   15728 H6        -224.0808  -146.8054   320.3860 H6            1 RES     
   15729 H6        -224.1338  -147.8291   321.8630 H6            1 RES     
   15730 H6        -223.7286  -144.7500   322.1323 H6            1 RES     
   15731 H6        -224.6206  -144.9259   324.2798 H6            1 RES     
   15732 H6        -225.1270  -146.6223   324.0165 H6            1 RES     
   15733 H6        -223.2314  -146.3859   325.5452 H6            1 RES     
   15734 H6        -222.8617  -147.4238   324.1210 H6            1 RES     
   15735 H6        -221.3999  -145.7614   323.1999 H6            1 RES     
   15736 H6        -221.9992  -144.4606   324.2562 H6            1 RES     
   15737 H6        -219.7120  -145.2387   324.7782 H6            1 RES     
   15738 H6        -220.8903  -145.5263   326.1169 H6            1 RES     
   15739 H6        -221.1346  -147.9054   325.3347 H6            1 RES     
   15740 H6        -219.8473  -147.6510   324.0992 H6            1 RES     
   15741 H6        -218.2273  -147.1766   325.9696 H6            1 RES     
   15742 H6        -219.6056  -147.1921   327.1479 H6            1 RES     
   15743 H6        -218.6295  -149.5519   325.4976 H6            1 RES     
   15744 H6        -220.1372  -149.5592   326.5265 H6            1 RES     
   15745 H6        -217.2520  -149.1717   327.4709 H6            1 RES     
   15746 H6        -218.3147  -150.6225   327.7024 H6            1 RES     
   15747 H6        -218.7430  -149.0652   328.5112 H6            1 RES     
   15748 H6        -226.4696  -145.9436   321.8817 H6            1 RES     
   15749 H6        -225.5357  -145.0985   320.6109 H6            1 RES     
   15750 H6        -225.5743  -142.9489   321.7125 H6            1 RES     
   15751 H6        -227.1356  -143.6144   321.2906 H6            1 RES     
   15752 H6        -226.1479  -143.2315   324.1749 H6            1 RES     
   15753 H6        -227.3828  -142.3398   323.2454 H6            1 RES     
   15754 H6        -227.4776  -145.2660   324.1157 H6            1 RES     
   15755 H6        -228.6905  -144.5326   322.9832 H6            1 RES     
   15756 H6        -229.5223  -142.9944   324.6769 H6            1 RES     
   15757 H6        -228.1891  -143.4086   325.8044 H6            1 RES     
   15758 H6        -230.2272  -144.5653   326.5415 H6            1 RES     
   15759 H6        -228.9277  -145.6893   326.0662 H6            1 RES     
   15760 H6        -231.0015  -146.6181   325.2882 H6            1 RES     
   15761 H6        -230.0421  -146.1432   323.8799 H6            1 RES     
   15762 H6        -231.4438  -144.0784   323.5912 H6            1 RES     
   15763 H6        -232.3910  -145.5982   323.5146 H6            1 RES     
   15764 H6        -232.2621  -143.6765   325.9336 H6            1 RES     
   15765 H6        -233.6026  -143.8585   324.7573 H6            1 RES     
   15766 H6        -233.9517  -146.2331   325.4839 H6            1 RES     
   15767 H6        -232.6398  -146.0426   326.7188 H6            1 RES     
   15768 H6        -234.1307  -145.0580   326.8407 H6            1 RES     
   15769 C0        -218.6613  -162.3650   321.3596 C0            1 RES     
   15770 C0        -218.8148  -161.4523   322.9611 C0            1 RES     
   15771 C0        -220.1417  -161.4881   323.3707 C0            1 RES     
   15772 S1        -220.5598  -160.4384   324.6650 S1            1 RES     
   15773 C0        -219.1258  -159.6745   325.0048 C0            1 RES     
   15774 C0        -218.1993  -160.3760   323.9708 C0            1 RES     
   15775 C0        -221.0403  -161.9274   322.3025 C0            1 RES     
   15776 C0        -220.0496  -161.6828   321.1760 C0            1 RES     
   15777 C0        -220.2311  -160.4537   320.6208 C0            1 RES     
   15778 C0        -221.3566  -159.7594   321.0578 C0            1 RES     
   15779 S1        -222.3749  -160.6695   322.1871 S1            1 RES     
   15780 H2        -217.1873  -159.9965   323.8961 H2            1 RES     
   15781 H2        -219.4746  -159.9430   320.0477 H2            1 RES     
   15782 N3        -220.8969  -157.0872   327.4791 N3            1 RES     
   15783 C0        -220.5974  -158.0066   326.5488 C0            1 RES     
   15784 C0        -219.2453  -158.4752   326.1961 C0            1 RES     
   15785 C0        -218.2750  -157.7453   327.0386 C0            1 RES     
   15786 N3        -216.9141  -157.9037   326.9942 N3            1 RES     
   15787 S1        -216.3567  -156.8648   328.1712 S1            1 RES     
   15788 N3        -217.7299  -156.1622   328.7633 N3            1 RES     
   15789 C0        -218.6866  -156.7551   328.0365 C0            1 RES     
   15790 C0        -220.0001  -156.4196   328.2561 C0            1 RES     
   15791 H4        -221.4574  -158.3890   326.0455 H4            1 RES     
   15792 C5        -221.2617  -178.2898   310.5961 C5            1 RES     
   15793 C5        -220.9825  -177.1570   311.6244 C5            1 RES     
   15794 C5        -219.9261  -176.1103   311.1402 C5            1 RES     
   15795 C5        -219.7775  -174.7372   311.9593 C5            1 RES     
   15796 C5        -219.0680  -174.6948   313.3809 C5            1 RES     
   15797 C5        -219.1032  -173.3602   314.3783 C5            1 RES     
   15798 C5        -218.2373  -171.9591   314.2352 C5            1 RES     
   15799 C5        -217.9536  -170.6956   315.4198 C5            1 RES     
   15800 C5        -218.7959  -169.2837   315.8747 C5            1 RES     
   15801 C5        -218.7165  -167.9678   317.1019 C5            1 RES     
   15802 C5        -217.9301  -166.3876   317.3451 C5            1 RES     
   15803 C5        -216.6259  -166.6649   316.3988 C5            1 RES     
   15804 C5        -215.6873  -167.9335   316.6413 C5            1 RES     
   15805 C5        -214.8097  -168.3967   315.3989 C5            1 RES     
   15806 C5        -213.7516  -169.5302   315.6854 C5            1 RES     
   15807 C5        -212.8281  -169.2376   316.8881 C5            1 RES     
   15808 C5        -212.0974  -167.8752   316.8104 C5            1 RES     
   15809 C5        -210.5745  -167.9329   316.6434 C5            1 RES     
   15810 C5        -210.0973  -168.6352   315.3769 C5            1 RES     
   15811 C5        -218.0446  -164.8022   318.5174 C5            1 RES     
   15812 C0        -218.4690  -164.0274   320.2642 C0            1 RES     
   15813 C5        -218.0473  -165.1882   321.2011 C5            1 RES     
   15814 C5        -218.4260  -166.6717   320.7203 C5            1 RES     
   15815 C5        -219.8564  -167.0891   321.1030 C5            1 RES     
   15816 C5        -221.0051  -166.1219   320.7349 C5            1 RES     
   15817 C5        -221.0769  -165.6899   319.2540 C5            1 RES     
   15818 C5        -222.3868  -165.0280   318.8468 C5            1 RES     
   15819 C5        -222.7393  -163.8371   319.7387 C5            1 RES     
   15820 C5        -224.1626  -163.3640   319.4618 C5            1 RES     
   15821 C5        -224.5973  -162.4092   320.5654 C5            1 RES     
   15822 C5        -226.0633  -162.0504   320.4839 C5            1 RES     
   15823 C5        -217.3447  -167.7097   321.1766 C5            1 RES     
   15824 C5        -217.1976  -169.1269   320.5010 C5            1 RES     
   15825 C5        -218.1844  -170.2962   320.7672 C5            1 RES     
   15826 C5        -218.3606  -170.5801   322.2645 C5            1 RES     
   15827 C5        -219.0730  -171.9183   322.5643 C5            1 RES     
   15828 C5        -219.5598  -171.9936   324.0283 C5            1 RES     
   15829 C5        -218.4774  -171.8131   325.1132 C5            1 RES     
   15830 C5        -217.4325  -172.9412   325.1994 C5            1 RES     
   15831 C5        -218.0041  -174.3311   325.5428 C5            1 RES     
   15832 C5        -218.7329  -174.3740   326.8888 C5            1 RES     
   15833 H6        -221.6539  -177.8847   309.6354 H6            1 RES     
   15834 H6        -220.3592  -178.8985   310.3745 H6            1 RES     
   15835 H6        -222.0434  -178.9863   310.9840 H6            1 RES     
   15836 H6        -221.9560  -176.6477   311.7823 H6            1 RES     
   15837 H6        -220.6578  -177.6231   312.5766 H6            1 RES     
   15838 H6        -218.9495  -176.6229   310.9877 H6            1 RES     
   15839 H6        -220.2846  -175.8227   310.1230 H6            1 RES     
   15840 H6        -220.8056  -174.3376   312.0558 H6            1 RES     
   15841 H6        -219.1948  -174.0618   311.3012 H6            1 RES     
   15842 H6        -218.0266  -175.0719   313.2479 H6            1 RES     
   15843 H6        -219.5951  -175.5076   313.9357 H6            1 RES     
   15844 H6        -218.7370  -173.8052   315.3299 H6            1 RES     
   15845 H6        -220.1720  -173.1205   314.5134 H6            1 RES     
   15846 H6        -217.2249  -172.4087   314.0793 H6            1 RES     
   15847 H6        -218.4905  -171.5126   313.2516 H6            1 RES     
   15848 H6        -216.9819  -170.3257   315.0315 H6            1 RES     
   15849 H6        -217.6960  -171.2889   316.3233 H6            1 RES     
   15850 H6        -218.9798  -168.7794   314.9036 H6            1 RES     
   15851 H6        -219.7470  -169.7833   316.1498 H6            1 RES     
   15852 H6        -218.5837  -168.5358   318.0277 H6            1 RES     
   15853 H6        -219.7739  -167.6725   317.0868 H6            1 RES     
   15854 H6        -218.4801  -165.8498   316.5405 H6            1 RES     
   15855 H6        -216.0197  -165.7558   316.2128 H6            1 RES     
   15856 H6        -217.0479  -166.9153   315.3896 H6            1 RES     
   15857 H6        -216.2728  -168.8351   316.9100 H6            1 RES     
   15858 H6        -215.0340  -167.6805   317.4906 H6            1 RES     
   15859 H6        -214.2843  -167.5316   314.9610 H6            1 RES     
   15860 H6        -215.4517  -168.7701   314.5673 H6            1 RES     
   15861 H6        -213.1233  -169.7035   314.7783 H6            1 RES     
   15862 H6        -214.2673  -170.4966   315.8920 H6            1 RES     
   15863 H6        -213.4886  -169.2339   317.7772 H6            1 RES     
   15864 H6        -212.1105  -170.0681   317.0817 H6            1 RES     
   15865 H6        -212.5174  -167.2183   316.0307 H6            1 RES     
   15866 H6        -212.2778  -167.3528   317.7731 H6            1 RES     
   15867 H6        -210.1264  -168.4346   317.5265 H6            1 RES     
   15868 H6        -210.2095  -166.8820   316.6189 H6            1 RES     
   15869 H6        -210.5257  -168.1576   314.4717 H6            1 RES     
   15870 H6        -208.9888  -168.5596   315.3284 H6            1 RES     
   15871 H6        -210.3702  -169.7101   315.3994 H6            1 RES     
   15872 H6        -218.6913  -164.1544   317.8825 H6            1 RES     
   15873 H6        -217.0610  -164.3358   318.2977 H6            1 RES     
   15874 H6        -216.9461  -165.0788   321.2268 H6            1 RES     
   15875 H6        -218.4431  -165.0082   322.2200 H6            1 RES     
   15876 H6        -218.3754  -166.7750   319.6526 H6            1 RES     
   15877 H6        -220.0661  -168.0587   320.6178 H6            1 RES     
   15878 H6        -219.8968  -167.2368   322.1988 H6            1 RES     
   15879 H6        -221.9456  -166.6494   320.9975 H6            1 RES     
   15880 H6        -220.9180  -165.2203   321.3770 H6            1 RES     
   15881 H6        -220.3392  -164.9346   319.0677 H6            1 RES     
   15882 H6        -220.9064  -166.5522   318.5898 H6            1 RES     
   15883 H6        -222.3173  -164.6882   317.7872 H6            1 RES     
   15884 H6        -223.1766  -165.8013   318.9210 H6            1 RES     
   15885 H6        -222.7236  -164.1793   320.7906 H6            1 RES     
   15886 H6        -222.0032  -163.0084   319.6252 H6            1 RES     
   15887 H6        -224.2339  -162.8846   318.4605 H6            1 RES     
   15888 H6        -224.8335  -164.2477   319.4952 H6            1 RES     
   15889 H6        -224.0103  -161.4864   320.4658 H6            1 RES     
   15890 H6        -224.4250  -162.8885   321.5585 H6            1 RES     
   15891 H6        -226.2638  -161.5065   319.5399 H6            1 RES     
   15892 H6        -226.3166  -161.4009   321.3492 H6            1 RES     
   15893 H6        -226.6780  -162.9732   320.5368 H6            1 RES     
   15894 H6        -217.3484  -167.8029   322.2773 H6            1 RES     
   15895 H6        -216.3814  -167.2338   320.8835 H6            1 RES     
   15896 H6        -217.0629  -169.0209   319.4079 H6            1 RES     
   15897 H6        -216.2182  -169.5135   320.8579 H6            1 RES     
   15898 H6        -219.1733  -170.1348   320.2899 H6            1 RES     
   15899 H6        -217.7435  -171.2024   320.2852 H6            1 RES     
   15900 H6        -218.9502  -169.7367   322.6779 H6            1 RES     
   15901 H6        -217.3646  -170.6151   322.7548 H6            1 RES     
   15902 H6        -218.4018  -172.7747   322.3224 H6            1 RES     
   15903 H6        -219.9779  -172.0139   321.9254 H6            1 RES     
   15904 H6        -220.1065  -172.9457   324.1948 H6            1 RES     
   15905 H6        -220.2978  -171.1736   324.1631 H6            1 RES     
   15906 H6        -218.9817  -171.7199   326.0965 H6            1 RES     
   15907 H6        -217.9523  -170.8493   324.9513 H6            1 RES     
   15908 H6        -216.8791  -173.0063   324.2391 H6            1 RES     
   15909 H6        -216.6990  -172.6655   325.9896 H6            1 RES     
   15910 H6        -218.6896  -174.6759   324.7417 H6            1 RES     
   15911 H6        -217.1550  -175.0471   325.5909 H6            1 RES     
   15912 H6        -218.0562  -174.0512   327.7086 H6            1 RES     
   15913 H6        -219.6334  -173.7264   326.8783 H6            1 RES     
   15914 H6        -219.0690  -175.4120   327.0949 H6            1 RES     
   15915 C0        -222.0959  -151.9005   329.7257 C0            1 RES     
   15916 C0        -223.3826  -153.1675   329.3253 C0            1 RES     
   15917 C0        -223.2944  -154.2016   330.2486 C0            1 RES     
   15918 S1        -224.1831  -155.6237   329.8751 S1            1 RES     
   15919 C0        -224.8921  -155.2504   328.4214 C0            1 RES     
   15920 C0        -224.3721  -153.7958   328.2378 C0            1 RES     
   15921 C0        -222.0550  -154.1478   331.0250 C0            1 RES     
   15922 C0        -221.3311  -153.2132   330.0694 C0            1 RES     
   15923 C0        -220.5706  -153.9108   329.1823 C0            1 RES     
   15924 C0        -220.4701  -155.2785   329.4253 C0            1 RES     
   15925 S1        -221.2862  -155.8125   330.9049 S1            1 RES     
   15926 H2        -224.6062  -153.3166   327.2948 H2            1 RES     
   15927 H2        -220.2344  -153.5069   328.2414 H2            1 RES     
   15928 N3        -226.1590  -159.0002   327.8854 N3            1 RES     
   15929 C0        -225.5445  -157.8745   328.2799 C0            1 RES     
   15930 C0        -225.7695  -156.5253   327.7312 C0            1 RES     
   15931 C0        -226.7828  -156.6312   326.6605 C0            1 RES     
   15932 N3        -227.2490  -155.5847   325.9079 N3            1 RES     
   15933 S1        -228.3779  -156.2903   324.9063 S1            1 RES     
   15934 N3        -228.3312  -157.8893   325.3199 N3            1 RES     
   15935 C0        -227.4092  -157.9029   326.2918 C0            1 RES     
   15936 C0        -227.0949  -159.0930   326.9010 C0            1 RES     
   15937 H4        -224.8316  -158.0367   329.0575 H4            1 RES     
   15938 C5        -213.6203  -139.6821   342.1792 C5            1 RES     
   15939 C5        -214.4990  -140.5829   341.2655 C5            1 RES     
   15940 C5        -214.2713  -140.3451   339.7365 C5            1 RES     
   15941 C5        -214.8746  -141.4104   338.6976 C5            1 RES     
   15942 C5        -216.4322  -141.4719   338.3869 C5            1 RES     
   15943 C5        -217.1404  -142.7038   337.5164 C5            1 RES     
   15944 C5        -217.1068  -142.9448   335.8810 C5            1 RES     
   15945 C5        -218.1118  -143.9821   334.8841 C5            1 RES     
   15946 C5        -218.0212  -145.6162   334.4029 C5            1 RES     
   15947 C5        -218.9851  -146.8419   333.5015 C5            1 RES     
   15948 C5        -219.2528  -147.3917   331.8279 C5            1 RES     
   15949 C5        -218.8846  -145.9790   331.0916 C5            1 RES     
   15950 C5        -219.6315  -144.6246   331.4878 C5            1 RES     
   15951 C5        -218.8663  -143.2779   331.1285 C5            1 RES     
   15952 C5        -219.6761  -141.9434   331.3512 C5            1 RES     
   15953 C5        -221.0703  -141.9366   330.6870 C5            1 RES     
   15954 C5        -221.0546  -142.2695   329.1753 C5            1 RES     
   15955 C5        -221.4504  -141.1310   328.2279 C5            1 RES     
   15956 C5        -220.5564  -139.8981   328.3028 C5            1 RES     
   15957 C5        -220.0569  -148.9001   330.8385 C5            1 RES     
   15958 C0        -221.4020  -150.3183   330.7335 C0            1 RES     
   15959 C5        -222.5898  -149.6393   331.4622 C5            1 RES     
   15960 C5        -222.2333  -148.7851   332.7733 C5            1 RES     
   15961 C5        -222.1404  -149.6391   334.0495 C5            1 RES     
   15962 C5        -221.2480  -150.9007   334.0011 C5            1 RES     
   15963 C5        -219.7915  -150.6813   333.5372 C5            1 RES     
   15964 C5        -218.8513  -151.8459   333.8189 C5            1 RES     
   15965 C5        -219.3710  -153.1653   333.2470 C5            1 RES     
   15966 C5        -218.5390  -154.3358   333.7607 C5            1 RES     
   15967 C5        -219.2600  -155.6396   333.4467 C5            1 RES     
   15968 C5        -218.6102  -156.8386   334.0984 C5            1 RES     
   15969 C5        -223.1937  -147.5571   332.9292 C5            1 RES     
   15970 C5        -222.8344  -146.3141   333.8307 C5            1 RES     
   15971 C5        -222.9041  -146.3473   335.3818 C5            1 RES     
   15972 C5        -224.2655  -146.8358   335.8933 C5            1 RES     
   15973 C5        -224.4889  -146.5869   337.4021 C5            1 RES     
   15974 C5        -225.6779  -147.4074   337.9488 C5            1 RES     
   15975 C5        -227.0366  -147.1782   337.2542 C5            1 RES     
   15976 C5        -227.6562  -145.7828   337.4566 C5            1 RES     
   15977 C5        -227.9775  -145.4210   338.9202 C5            1 RES     
   15978 C5        -228.9669  -146.3842   339.5823 C5            1 RES     
   15979 H6        -212.5339  -139.8549   342.0036 H6            1 RES     
   15980 H6        -213.8275  -138.5997   342.0397 H6            1 RES     
   15981 H6        -213.8045  -139.9183   343.2548 H6            1 RES     
   15982 H6        -214.2227  -141.6278   341.5181 H6            1 RES     
   15983 H6        -215.5627  -140.4146   341.5295 H6            1 RES     
   15984 H6        -214.5543  -139.2979   339.4852 H6            1 RES     
   15985 H6        -213.1623  -140.3999   339.6219 H6            1 RES     
   15986 H6        -214.5386  -142.4009   339.0609 H6            1 RES     
   15987 H6        -214.3736  -141.1982   337.7318 H6            1 RES     
   15988 H6        -216.7359  -140.4732   337.9936 H6            1 RES     
   15989 H6        -216.8782  -141.5216   339.4091 H6            1 RES     
   15990 H6        -218.2152  -142.5203   337.7378 H6            1 RES     
   15991 H6        -216.8495  -143.6352   338.0320 H6            1 RES     
   15992 H6        -217.3899  -141.9118   335.5585 H6            1 RES     
   15993 H6        -216.0426  -143.0403   335.5825 H6            1 RES     
   15994 H6        -218.0436  -143.4097   333.9358 H6            1 RES     
   15995 H6        -219.1257  -143.7617   335.2817 H6            1 RES     
   15996 H6        -216.9845  -145.7054   334.0177 H6            1 RES     
   15997 H6        -218.0117  -146.0513   335.4229 H6            1 RES     
   15998 H6        -219.9714  -146.7308   333.9622 H6            1 RES     
   15999 H6        -218.5512  -147.7458   333.9492 H6            1 RES     
   16000 H6        -218.2345  -147.8131   331.6710 H6            1 RES     
   16001 H6        -218.7925  -146.0709   329.9908 H6            1 RES     
   16002 H6        -217.8408  -145.7403   331.4276 H6            1 RES     
   16003 H6        -219.8061  -144.5535   332.5796 H6            1 RES     
   16004 H6        -220.6095  -144.6485   330.9828 H6            1 RES     
   16005 H6        -218.5197  -143.3052   330.0819 H6            1 RES     
   16006 H6        -217.9266  -143.1768   331.7201 H6            1 RES     
   16007 H6        -219.0883  -141.0728   330.9715 H6            1 RES     
   16008 H6        -219.8279  -141.7608   332.4403 H6            1 RES     
   16009 H6        -221.6553  -142.7156   331.2141 H6            1 RES     
   16010 H6        -221.6281  -140.9923   330.8849 H6            1 RES     
   16011 H6        -220.0878  -142.6865   328.8481 H6            1 RES     
   16012 H6        -221.8008  -143.0748   329.0108 H6            1 RES     
   16013 H6        -222.4995  -140.8306   328.4318 H6            1 RES     
   16014 H6        -221.4005  -141.5365   327.1928 H6            1 RES     
   16015 H6        -219.4975  -140.1618   328.1019 H6            1 RES     
   16016 H6        -220.8943  -139.1705   327.5327 H6            1 RES     
   16017 H6        -220.6408  -139.4138   329.2972 H6            1 RES     
   16018 H6        -219.1444  -149.5192   330.6804 H6            1 RES     
   16019 H6        -220.1339  -148.4421   329.8298 H6            1 RES     
   16020 H6        -222.9885  -148.9651   330.6801 H6            1 RES     
   16021 H6        -223.3623  -150.3960   331.7024 H6            1 RES     
   16022 H6        -221.2815  -148.2949   332.6889 H6            1 RES     
   16023 H6        -221.7631  -148.9925   334.8614 H6            1 RES     
   16024 H6        -223.1592  -149.9739   334.3217 H6            1 RES     
   16025 H6        -221.2348  -151.3063   335.0342 H6            1 RES     
   16026 H6        -221.7366  -151.6455   333.3384 H6            1 RES     
   16027 H6        -219.7689  -150.5861   332.4695 H6            1 RES     
   16028 H6        -219.3681  -149.7771   334.0030 H6            1 RES     
   16029 H6        -217.8476  -151.6257   333.3865 H6            1 RES     
   16030 H6        -218.7547  -151.9244   334.9198 H6            1 RES     
   16031 H6        -220.3983  -153.3230   333.6260 H6            1 RES     
   16032 H6        -219.4041  -153.1442   332.1335 H6            1 RES     
   16033 H6        -217.5181  -154.3213   333.3190 H6            1 RES     
   16034 H6        -218.4633  -154.2483   334.8647 H6            1 RES     
   16035 H6        -219.2389  -155.7850   332.3583 H6            1 RES     
   16036 H6        -220.3093  -155.5821   333.8229 H6            1 RES     
   16037 H6        -217.5866  -156.9741   333.6970 H6            1 RES     
   16038 H6        -219.2216  -157.7384   333.8718 H6            1 RES     
   16039 H6        -218.5785  -156.6951   335.1986 H6            1 RES     
   16040 H6        -224.2219  -147.9031   333.1371 H6            1 RES     
   16041 H6        -223.1946  -147.0921   331.9172 H6            1 RES     
   16042 H6        -221.8579  -145.8894   333.5305 H6            1 RES     
   16043 H6        -223.5696  -145.5310   333.5440 H6            1 RES     
   16044 H6        -222.0881  -146.9508   335.8311 H6            1 RES     
   16045 H6        -222.7515  -145.2972   335.7310 H6            1 RES     
   16046 H6        -224.3113  -147.9228   335.6783 H6            1 RES     
   16047 H6        -225.0771  -146.3122   335.3449 H6            1 RES     
   16048 H6        -224.6322  -145.4988   337.5959 H6            1 RES     
   16049 H6        -223.5921  -146.9115   337.9735 H6            1 RES     
   16050 H6        -225.7795  -147.2405   339.0420 H6            1 RES     
   16051 H6        -225.4175  -148.4791   337.8122 H6            1 RES     
   16052 H6        -227.7508  -147.9413   337.6252 H6            1 RES     
   16053 H6        -226.9298  -147.3690   336.1665 H6            1 RES     
   16054 H6        -226.9764  -145.0123   337.0358 H6            1 RES     
   16055 H6        -228.6047  -145.7445   336.8760 H6            1 RES     
   16056 H6        -227.0463  -145.3788   339.5215 H6            1 RES     
   16057 H6        -228.4307  -144.4059   338.9294 H6            1 RES     
   16058 H6        -229.9156  -146.4252   339.0057 H6            1 RES     
   16059 H6        -228.5404  -147.4050   339.6625 H6            1 RES     
   16060 H6        -229.1928  -146.0334   340.6113 H6            1 RES     
   16061 C0        -227.0306  -163.9179   324.9796 C0            1 RES     
   16062 C0        -226.3933  -163.8505   326.7147 C0            1 RES     
   16063 C0        -227.4311  -163.4744   327.5580 C0            1 RES     
   16064 S1        -226.9831  -163.0469   329.1606 S1            1 RES     
   16065 C0        -225.3341  -163.2359   329.1507 C0            1 RES     
   16066 C0        -225.1320  -163.7323   327.6904 C0            1 RES     
   16067 C0        -228.5799  -162.9452   326.8219 C0            1 RES     
   16068 C0        -227.8158  -162.6914   325.5326 C0            1 RES     
   16069 C0        -227.3718  -161.4066   325.4698 C0            1 RES     
   16070 C0        -227.8361  -160.5626   326.4757 C0            1 RES     
   16071 S1        -228.9911  -161.3241   327.5833 S1            1 RES     
   16072 H2        -224.1071  -163.8503   327.3598 H2            1 RES     
   16073 H2        -226.5628  -161.0879   324.8330 H2            1 RES     
   16074 N3        -224.9497  -161.5370   332.7451 N3            1 RES     
   16075 C0        -225.3638  -161.9724   331.5454 C0            1 RES     
   16076 C0        -224.5759  -162.7779   330.5955 C0            1 RES     
   16077 C0        -223.2437  -163.0121   331.1910 C0            1 RES     
   16078 N3        -222.2272  -163.7168   330.6002 N3            1 RES     
   16079 S1        -221.0073  -163.6765   331.7340 S1            1 RES     
   16080 N3        -221.6445  -162.7856   332.9711 N3            1 RES     
   16081 C0        -222.8709  -162.5021   332.5125 C0            1 RES     
   16082 C0        -223.7226  -161.7582   333.2919 C0            1 RES     
   16083 H4        -226.3589  -161.6669   331.3094 H4            1 RES     
   16084 C5        -239.7076  -170.3966   311.8063 C5            1 RES     
   16085 C5        -238.6868  -170.0941   312.9399 C5            1 RES     
   16086 C5        -237.3214  -169.5297   312.4267 C5            1 RES     
   16087 C5        -236.3076  -168.8892   313.4946 C5            1 RES     
   16088 C5        -235.4766  -169.8014   314.4964 C5            1 RES     
   16089 C5        -234.6057  -169.1890   315.7784 C5            1 RES     
   16090 C5        -233.1448  -168.4158   315.7401 C5            1 RES     
   16091 C5        -232.0228  -168.0830   317.0479 C5            1 RES     
   16092 C5        -231.8552  -166.8127   318.1741 C5            1 RES     
   16093 C5        -230.8641  -166.3677   319.6107 C5            1 RES     
   16094 C5        -229.3069  -165.5915   319.9947 C5            1 RES     
   16095 C5        -228.5472  -165.9631   318.5953 C5            1 RES     
   16096 C5        -228.4450  -167.4741   318.0899 C5            1 RES     
   16097 C5        -228.1841  -167.6705   316.5337 C5            1 RES     
   16098 C5        -227.9024  -169.1485   316.0621 C5            1 RES     
   16099 C5        -226.7930  -169.8630   316.8646 C5            1 RES     
   16100 C5        -225.4535  -169.0893   316.9228 C5            1 RES     
   16101 C5        -224.2685  -169.7327   316.1933 C5            1 RES     
   16102 C5        -224.4712  -169.9279   314.6947 C5            1 RES     
   16103 C5        -228.3337  -164.8264   321.5337 C5            1 RES     
   16104 C0        -227.9707  -164.8115   323.4571 C0            1 RES     
   16105 C5        -228.1194  -166.3189   323.7871 C5            1 RES     
   16106 C5        -229.3282  -167.0941   323.0705 C5            1 RES     
   16107 C5        -230.6664  -166.9577   323.8170 C5            1 RES     
   16108 C5        -231.1274  -165.5330   324.2018 C5            1 RES     
   16109 C5        -231.1842  -164.5064   323.0495 C5            1 RES     
   16110 C5        -231.9524  -163.2310   323.3704 C5            1 RES     
   16111 C5        -231.4371  -162.5436   324.6353 C5            1 RES     
   16112 C5        -232.3818  -161.4233   325.0580 C5            1 RES     
   16113 C5        -232.0306  -160.9776   326.4710 C5            1 RES     
   16114 C5        -233.0421  -160.0142   327.0485 C5            1 RES     
   16115 C5        -228.9472  -168.5834   322.7678 C5            1 RES     
   16116 C5        -229.7209  -169.4527   321.7037 C5            1 RES     
   16117 C5        -231.1323  -170.0465   321.9632 C5            1 RES     
   16118 C5        -231.1934  -170.8553   323.2653 C5            1 RES     
   16119 C5        -232.4690  -171.7169   323.4030 C5            1 RES     
   16120 C5        -232.6735  -172.2112   324.8521 C5            1 RES     
   16121 C5        -231.5154  -173.0308   325.4590 C5            1 RES     
   16122 C5        -231.2735  -174.4098   324.8174 C5            1 RES     
   16123 C5        -232.4557  -175.3932   324.9262 C5            1 RES     
   16124 C5        -232.8589  -175.7030   326.3706 C5            1 RES     
   16125 H6        -239.9574  -169.4807   311.2237 H6            1 RES     
   16126 H6        -239.3434  -171.1711   311.0981 H6            1 RES     
   16127 H6        -240.6699  -170.7665   312.2350 H6            1 RES     
   16128 H6        -239.1742  -169.3374   313.5894 H6            1 RES     
   16129 H6        -238.5272  -171.0240   313.5224 H6            1 RES     
   16130 H6        -236.8324  -170.2928   311.7799 H6            1 RES     
   16131 H6        -237.6180  -168.6951   311.7473 H6            1 RES     
   16132 H6        -236.9103  -168.1666   314.0782 H6            1 RES     
   16133 H6        -235.5629  -168.3277   312.8955 H6            1 RES     
   16134 H6        -234.8564  -170.4961   313.8822 H6            1 RES     
   16135 H6        -236.2686  -170.4486   314.9436 H6            1 RES     
   16136 H6        -234.4006  -170.1205   316.3511 H6            1 RES     
   16137 H6        -235.3241  -168.5902   316.3644 H6            1 RES     
   16138 H6        -232.5922  -169.1441   315.0954 H6            1 RES     
   16139 H6        -233.2618  -167.5189   315.0978 H6            1 RES     
   16140 H6        -231.0865  -168.0512   316.4530 H6            1 RES     
   16141 H6        -231.9963  -169.0606   317.5752 H6            1 RES     
   16142 H6        -231.8815  -165.9069   317.5339 H6            1 RES     
   16143 H6        -232.8648  -166.9043   318.6239 H6            1 RES     
   16144 H6        -230.9220  -167.2805   320.2114 H6            1 RES     
   16145 H6        -231.5665  -165.6638   320.0764 H6            1 RES     
   16146 H6        -229.5871  -164.5719   319.6469 H6            1 RES     
   16147 H6        -227.5780  -165.4396   318.4719 H6            1 RES     
   16148 H6        -229.1925  -165.5233   317.7895 H6            1 RES     
   16149 H6        -229.3797  -168.0376   318.2807 H6            1 RES     
   16150 H6        -227.6350  -167.9430   318.6698 H6            1 RES     
   16151 H6        -227.3457  -167.0338   316.2054 H6            1 RES     
   16152 H6        -229.0488  -167.3084   315.9301 H6            1 RES     
   16153 H6        -227.6308  -169.1580   314.9788 H6            1 RES     
   16154 H6        -228.8261  -169.7658   316.1534 H6            1 RES     
   16155 H6        -227.1878  -169.9635   317.8946 H6            1 RES     
   16156 H6        -226.6362  -170.9132   316.5262 H6            1 RES     
   16157 H6        -225.5575  -168.0454   316.5836 H6            1 RES     
   16158 H6        -225.1569  -169.0304   317.9910 H6            1 RES     
   16159 H6        -224.0390  -170.7141   316.6586 H6            1 RES     
   16160 H6        -223.3918  -169.0640   316.3433 H6            1 RES     
   16161 H6        -224.7015  -168.9641   314.1956 H6            1 RES     
   16162 H6        -223.5317  -170.3370   314.2624 H6            1 RES     
   16163 H6        -225.2862  -170.6551   314.5019 H6            1 RES     
   16164 H6        -228.6046  -163.7538   321.4034 H6            1 RES     
   16165 H6        -227.3071  -164.7997   321.1109 H6            1 RES     
   16166 H6        -227.1553  -166.7313   323.4327 H6            1 RES     
   16167 H6        -228.1795  -166.4566   324.8846 H6            1 RES     
   16168 H6        -229.5153  -166.7224   322.0805 H6            1 RES     
   16169 H6        -231.4529  -167.4051   323.1840 H6            1 RES     
   16170 H6        -230.6055  -167.5421   324.7546 H6            1 RES     
   16171 H6        -232.1459  -165.6455   324.6283 H6            1 RES     
   16172 H6        -230.4536  -165.1542   324.9987 H6            1 RES     
   16173 H6        -230.1929  -164.1608   322.8320 H6            1 RES     
   16174 H6        -231.6294  -164.9586   322.1488 H6            1 RES     
   16175 H6        -231.8772  -162.5260   322.5100 H6            1 RES     
   16176 H6        -233.0142  -163.5179   323.5032 H6            1 RES     
   16177 H6        -231.4453  -163.2848   325.4566 H6            1 RES     
   16178 H6        -230.3948  -162.1725   324.5041 H6            1 RES     
   16179 H6        -232.3348  -160.5731   324.3420 H6            1 RES     
   16180 H6        -233.4142  -161.8304   325.0784 H6            1 RES     
   16181 H6        -231.0556  -160.4734   326.4349 H6            1 RES     
   16182 H6        -231.9963  -161.8687   327.1423 H6            1 RES     
   16183 H6        -233.0558  -159.0822   326.4498 H6            1 RES     
   16184 H6        -232.7502  -159.7809   328.0949 H6            1 RES     
   16185 H6        -234.0471  -160.4855   327.0537 H6            1 RES     
   16186 H6        -228.8253  -169.1436   323.7120 H6            1 RES     
   16187 H6        -227.9437  -168.5078   322.2909 H6            1 RES     
   16188 H6        -229.7275  -168.9437   320.7213 H6            1 RES     
   16189 H6        -229.0781  -170.3451   321.5417 H6            1 RES     
   16190 H6        -231.9271  -169.2717   321.9569 H6            1 RES     
   16191 H6        -231.3518  -170.7332   321.1099 H6            1 RES     
   16192 H6        -231.1412  -170.1214   324.0950 H6            1 RES     
   16193 H6        -230.3208  -171.5404   323.3173 H6            1 RES     
   16194 H6        -232.4343  -172.5732   322.6904 H6            1 RES     
   16195 H6        -233.3635  -171.1078   323.1481 H6            1 RES     
   16196 H6        -233.6211  -172.7858   324.9237 H6            1 RES     
   16197 H6        -232.8001  -171.3062   325.4845 H6            1 RES     
   16198 H6        -231.7180  -173.1725   326.5402 H6            1 RES     
   16199 H6        -230.5783  -172.4396   325.4029 H6            1 RES     
   16200 H6        -231.0117  -174.2781   323.7465 H6            1 RES     
   16201 H6        -230.3949  -174.8701   325.3219 H6            1 RES     
   16202 H6        -233.3351  -175.0031   324.3740 H6            1 RES     
   16203 H6        -232.1514  -176.3476   324.4441 H6            1 RES     
   16204 H6        -231.9958  -176.1147   326.9361 H6            1 RES     
   16205 H6        -233.2370  -174.7959   326.8850 H6            1 RES     
   16206 H6        -233.6756  -176.4551   326.3737 H6            1 RES     
   16207 C0        -222.6937  -157.9636   336.6857 C0            1 RES     
   16208 C0        -224.5111  -158.2049   336.4404 C0            1 RES     
   16209 C0        -224.8641  -159.4602   336.9193 C0            1 RES     
   16210 S1        -226.4382  -160.0100   336.5046 S1            1 RES     
   16211 C0        -227.0434  -158.7598   335.5958 C0            1 RES     
   16212 C0        -225.8419  -157.7742   335.6658 C0            1 RES     
   16213 C0        -223.6976  -160.3106   337.1591 C0            1 RES     
   16214 C0        -222.7416  -159.4773   336.3211 C0            1 RES     
   16215 C0        -222.6494  -159.9626   335.0531 C0            1 RES     
   16216 C0        -223.2864  -161.1809   334.8303 C0            1 RES     
   16217 S1        -224.0116  -161.8942   336.2813 S1            1 RES     
   16218 H2        -225.9187  -156.8782   335.0617 H2            1 RES     
   16219 H2        -222.3018  -159.3781   334.2170 H2            1 RES     
   16220 N3        -230.2426  -160.8844   334.4983 N3            1 RES     
   16221 C0        -229.0535  -160.4539   334.9467 C0            1 RES     
   16222 C0        -228.5774  -159.0591   334.9409 C0            1 RES     
   16223 C0        -229.6353  -158.2183   334.3425 C0            1 RES     
   16224 N3        -229.5568  -156.8622   334.1581 N3            1 RES     
   16225 S1        -231.0305  -156.4684   333.4885 S1            1 RES     
   16226 N3        -231.8123  -157.9190   333.3684 N3            1 RES     
   16227 C0        -230.9110  -158.7689   333.8786 C0            1 RES     
   16228 C0        -231.2162  -160.1059   333.9511 C0            1 RES     
   16229 H4        -228.4364  -161.2408   335.3199 H4            1 RES     
   16230 C5        -207.0017  -157.7195   348.0838 C5            1 RES     
   16231 C5        -208.3652  -157.6273   347.3416 C5            1 RES     
   16232 C5        -208.2926  -156.8630   345.9790 C5            1 RES     
   16233 C5        -209.5425  -156.9651   344.9762 C5            1 RES     
   16234 C5        -210.8985  -156.1870   345.2628 C5            1 RES     
   16235 C5        -212.2994  -156.4474   344.3986 C5            1 RES     
   16236 C5        -212.6677  -155.9232   342.8744 C5            1 RES     
   16237 C5        -214.2234  -155.8447   342.0660 C5            1 RES     
   16238 C5        -215.1323  -156.9444   341.1308 C5            1 RES     
   16239 C5        -216.7436  -157.0733   340.3362 C5            1 RES     
   16240 C5        -217.5353  -156.6397   338.8000 C5            1 RES     
   16241 C5        -216.5696  -155.3740   338.4271 C5            1 RES     
   16242 C5        -216.3654  -154.1648   339.4493 C5            1 RES     
   16243 C5        -215.0516  -153.2934   339.2420 C5            1 RES     
   16244 C5        -214.9375  -151.9947   340.1288 C5            1 RES     
   16245 C5        -216.1790  -151.0784   340.0632 C5            1 RES     
   16246 C5        -216.5931  -150.6729   338.6278 C5            1 RES     
   16247 C5        -216.4373  -149.1898   338.2724 C5            1 RES     
   16248 C5        -215.0117  -148.6571   338.3667 C5            1 RES     
   16249 C5        -219.1868  -157.0205   337.7859 C5            1 RES     
   16250 C0        -221.0883  -157.4850   337.7785 C0            1 RES     
   16251 C5        -221.5652  -156.7550   339.0602 C5            1 RES     
   16252 C5        -220.5903  -156.8295   340.3328 C5            1 RES     
   16253 C5        -220.7832  -158.1033   341.1736 C5            1 RES     
   16254 C5        -220.7613  -159.4592   340.4310 C5            1 RES     
   16255 C5        -219.5245  -159.7252   339.5453 C5            1 RES     
   16256 C5        -219.3570  -161.1734   339.1042 C5            1 RES     
   16257 C5        -220.6046  -161.7179   338.4077 C5            1 RES     
   16258 C5        -220.4914  -163.2259   338.2095 C5            1 RES     
   16259 C5        -221.8534  -163.7840   337.8196 C5            1 RES     
   16260 C5        -221.8827  -165.2952   337.8023 C5            1 RES     
   16261 C5        -220.6690  -155.5175   341.1857 C5            1 RES     
   16262 C5        -219.5421  -155.1082   342.2100 C5            1 RES     
   16263 C5        -219.3686  -155.7926   343.5932 C5            1 RES     
   16264 C5        -220.6692  -155.7995   344.4067 C5            1 RES     
   16265 C5        -220.4718  -156.1774   345.8922 C5            1 RES     
   16266 C5        -221.8100  -156.5347   346.5759 C5            1 RES     
   16267 C5        -222.9040  -155.4473   346.5352 C5            1 RES     
   16268 C5        -222.6041  -154.1761   347.3513 C5            1 RES     
   16269 C5        -222.4313  -154.4027   348.8663 C5            1 RES     
   16270 C5        -223.6670  -155.0107   349.5358 C5            1 RES     
   16271 H6        -206.2384  -158.2559   347.4751 H6            1 RES     
   16272 H6        -206.5934  -156.7224   348.3541 H6            1 RES     
   16273 H6        -207.1105  -158.3003   349.0312 H6            1 RES     
   16274 H6        -208.6782  -158.6760   347.1563 H6            1 RES     
   16275 H6        -209.0984  -157.1437   348.0184 H6            1 RES     
   16276 H6        -207.9836  -155.8102   346.1685 H6            1 RES     
   16277 H6        -207.4356  -157.3446   345.4502 H6            1 RES     
   16278 H6        -209.7588  -158.0469   344.8822 H6            1 RES     
   16279 H6        -209.1705  -156.5917   344.0010 H6            1 RES     
   16280 H6        -210.6560  -155.0997   345.3207 H6            1 RES     
   16281 H6        -211.1264  -156.4830   346.3148 H6            1 RES     
   16282 H6        -213.0400  -155.9281   345.0465 H6            1 RES     
   16283 H6        -212.4953  -157.5309   344.4729 H6            1 RES     
   16284 H6        -212.3781  -154.8497   342.9972 H6            1 RES     
   16285 H6        -211.8994  -156.3350   342.1883 H6            1 RES     
   16286 H6        -214.0025  -155.0072   341.3721 H6            1 RES     
   16287 H6        -214.8655  -155.4018   342.8573 H6            1 RES     
   16288 H6        -214.3969  -157.3006   340.3802 H6            1 RES     
   16289 H6        -215.2022  -157.7410   341.8991 H6            1 RES     
   16290 H6        -217.4137  -156.7558   341.1409 H6            1 RES     
   16291 H6        -216.8184  -158.1683   340.3056 H6            1 RES     
   16292 H6        -216.9624  -157.3482   338.1605 H6            1 RES     
   16293 H6        -216.7219  -154.9971   337.3958 H6            1 RES     
   16294 H6        -215.5310  -155.7984   338.4053 H6            1 RES     
   16295 H6        -216.2935  -154.5175   340.4972 H6            1 RES     
   16296 H6        -217.2584  -153.5269   339.3605 H6            1 RES     
   16297 H6        -214.9515  -153.0026   338.1829 H6            1 RES     
   16298 H6        -214.1332  -153.8926   339.4439 H6            1 RES     
   16299 H6        -214.0358  -151.4070   339.8303 H6            1 RES     
   16300 H6        -214.7857  -152.2695   341.1984 H6            1 RES     
   16301 H6        -217.0041  -151.6614   340.5174 H6            1 RES     
   16302 H6        -216.0794  -150.1841   340.7206 H6            1 RES     
   16303 H6        -216.0871  -151.2795   337.8586 H6            1 RES     
   16304 H6        -217.6753  -150.8979   338.5247 H6            1 RES     
   16305 H6        -217.0949  -148.5830   338.9295 H6            1 RES     
   16306 H6        -216.7873  -149.0678   337.2232 H6            1 RES     
   16307 H6        -214.3253  -149.2409   337.7194 H6            1 RES     
   16308 H6        -215.0079  -147.5984   338.0260 H6            1 RES     
   16309 H6        -214.6528  -148.6843   339.4159 H6            1 RES     
   16310 H6        -218.8101  -157.8357   337.1268 H6            1 RES     
   16311 H6        -219.1576  -156.1811   337.0593 H6            1 RES     
   16312 H6        -221.6425  -155.7059   338.7159 H6            1 RES     
   16313 H6        -222.5771  -157.1103   339.3376 H6            1 RES     
   16314 H6        -219.5548  -156.8303   340.0483 H6            1 RES     
   16315 H6        -219.9863  -158.1268   341.9379 H6            1 RES     
   16316 H6        -221.7572  -158.0353   341.6940 H6            1 RES     
   16317 H6        -220.8097  -160.2402   341.2181 H6            1 RES     
   16318 H6        -221.6795  -159.5293   339.8108 H6            1 RES     
   16319 H6        -219.6246  -159.1865   338.6238 H6            1 RES     
   16320 H6        -218.6028  -159.4146   340.0629 H6            1 RES     
   16321 H6        -218.4846  -161.2528   338.4147 H6            1 RES     
   16322 H6        -219.1451  -161.7665   340.0156 H6            1 RES     
   16323 H6        -221.4702  -161.5556   339.0772 H6            1 RES     
   16324 H6        -220.7984  -161.1920   337.4448 H6            1 RES     
   16325 H6        -219.7204  -163.4692   337.4453 H6            1 RES     
   16326 H6        -220.2041  -163.6819   339.1800 H6            1 RES     
   16327 H6        -222.0912  -163.4230   336.8100 H6            1 RES     
   16328 H6        -222.6181  -163.4431   338.5576 H6            1 RES     
   16329 H6        -221.1862  -165.6745   337.0289 H6            1 RES     
   16330 H6        -222.9171  -165.6257   337.5668 H6            1 RES     
   16331 H6        -221.6008  -165.6863   338.8021 H6            1 RES     
   16332 H6        -221.6672  -155.4255   341.6496 H6            1 RES     
   16333 H6        -220.5743  -154.7050   340.4300 H6            1 RES     
   16334 H6        -218.5572  -155.0751   341.7068 H6            1 RES     
   16335 H6        -219.7544  -154.0458   342.4591 H6            1 RES     
   16336 H6        -218.9646  -156.8231   343.5098 H6            1 RES     
   16337 H6        -218.6059  -155.1969   344.1510 H6            1 RES     
   16338 H6        -221.3437  -156.5308   343.9167 H6            1 RES     
   16339 H6        -221.1298  -154.7892   344.3778 H6            1 RES     
   16340 H6        -219.9545  -155.3522   346.4342 H6            1 RES     
   16341 H6        -219.8276  -157.0804   345.9680 H6            1 RES     
   16342 H6        -221.6251  -156.8456   347.6258 H6            1 RES     
   16343 H6        -222.2132  -157.4243   346.0456 H6            1 RES     
   16344 H6        -223.8508  -155.8915   346.9044 H6            1 RES     
   16345 H6        -223.0970  -155.1597   345.4812 H6            1 RES     
   16346 H6        -221.6894  -153.6888   346.9532 H6            1 RES     
   16347 H6        -223.4507  -153.4692   347.2031 H6            1 RES     
   16348 H6        -221.5510  -155.0484   349.0628 H6            1 RES     
   16349 H6        -222.2373  -153.4155   349.3393 H6            1 RES     
   16350 H6        -224.5571  -154.3674   349.3679 H6            1 RES     
   16351 H6        -223.8717  -156.0303   349.1499 H6            1 RES     
   16352 H6        -223.4921  -155.0949   350.6290 H6            1 RES     
   16353 C0        -234.1463  -163.0406   330.8242 C0            1 RES     
   16354 C0        -233.3101  -164.0408   332.1364 C0            1 RES     
   16355 C0        -233.8141  -163.6641   333.3749 C0            1 RES     
   16356 S1        -232.9542  -164.2411   334.7459 S1            1 RES     
   16357 C0        -231.7137  -165.1123   334.0696 C0            1 RES     
   16358 C0        -232.0580  -164.9394   332.5625 C0            1 RES     
   16359 C0        -234.5770  -162.4172   333.3074 C0            1 RES     
   16360 C0        -234.0190  -161.9838   331.9615 C0            1 RES     
   16361 C0        -232.9543  -161.1506   332.1166 C0            1 RES     
   16362 C0        -232.7044  -160.7349   333.4222 C0            1 RES     
   16363 S1        -233.8922  -161.3105   334.6047 S1            1 RES     
   16364 H2        -231.3394  -165.3370   331.8560 H2            1 RES     
   16365 H2        -232.2190  -160.9766   331.3481 H2            1 RES     
   16366 N3        -229.8816  -165.5556   337.5910 N3            1 RES     
   16367 C0        -230.6536  -165.1787   336.5603 C0            1 RES     
   16368 C0        -230.6090  -165.7323   335.1951 C0            1 RES     
   16369 C0        -229.5552  -166.7679   335.1568 C0            1 RES     
   16370 N3        -229.2103  -167.5035   334.0528 N3            1 RES     
   16371 S1        -228.0099  -168.5148   334.6109 S1            1 RES     
   16372 N3        -227.8380  -168.0889   336.1980 N3            1 RES     
   16373 C0        -228.7561  -167.1224   336.3322 C0            1 RES     
   16374 C0        -228.9143  -166.5129   337.5527 C0            1 RES     
   16375 H4        -231.3348  -164.3963   336.8111 H4            1 RES     
   16376 C5        -250.2036  -156.6361   322.0288 C5            1 RES     
   16377 C5        -249.0204  -157.3550   322.7372 C5            1 RES     
   16378 C5        -247.6747  -157.2900   321.9428 C5            1 RES     
   16379 C5        -246.3204  -157.7133   322.6946 C5            1 RES     
   16380 C5        -245.9867  -159.2364   323.0024 C5            1 RES     
   16381 C5        -244.7304  -159.7136   323.9878 C5            1 RES     
   16382 C5        -243.1148  -159.7393   323.6374 C5            1 RES     
   16383 C5        -241.8042  -160.5566   324.4706 C5            1 RES     
   16384 C5        -240.7826  -160.1413   325.7721 C5            1 RES     
   16385 C5        -239.4961  -160.8706   326.8002 C5            1 RES     
   16386 C5        -237.7325  -161.1241   326.7872 C5            1 RES     
   16387 C5        -237.5425  -161.1273   325.1632 C5            1 RES     
   16388 C5        -238.3775  -162.1254   324.2383 C5            1 RES     
   16389 C5        -238.5229  -161.7020   322.7125 C5            1 RES     
   16390 C5        -239.1877  -162.7688   321.7605 C5            1 RES     
   16391 C5        -238.5489  -164.1722   321.8470 C5            1 RES     
   16392 C5        -237.0168  -164.1867   321.6270 C5            1 RES     
   16393 C5        -236.5225  -164.8873   320.3560 C5            1 RES     
   16394 C5        -237.0366  -164.2838   319.0535 C5            1 RES     
   16395 C5        -236.2667  -161.6416   328.0056 C5            1 RES     
   16396 C0        -235.6536  -162.6452   329.5704 C0            1 RES     
   16397 C5        -236.5576  -163.9010   329.4760 C5            1 RES     
   16398 C5        -238.0895  -163.6528   329.0669 C5            1 RES     
   16399 C5        -238.9871  -163.2873   330.2616 C5            1 RES     
   16400 C5        -238.5122  -162.1443   331.1881 C5            1 RES     
   16401 C5        -238.1744  -160.8070   330.4936 C5            1 RES     
   16402 C5        -238.0433  -159.6163   331.4343 C5            1 RES     
   16403 C5        -237.0387  -159.8704   332.5586 C5            1 RES     
   16404 C5        -237.1214  -158.7679   333.6093 C5            1 RES     
   16405 C5        -236.3609  -159.2037   334.8544 C5            1 RES     
   16406 C5        -236.5605  -158.2628   336.0204 C5            1 RES     
   16407 C5        -238.6523  -164.8473   328.2235 C5            1 RES     
   16408 C5        -239.9368  -164.7100   327.3190 C5            1 RES     
   16409 C5        -241.3770  -164.6648   327.8983 C5            1 RES     
   16410 C5        -241.6664  -165.8469   328.8322 C5            1 RES     
   16411 C5        -243.1637  -166.0163   329.1756 C5            1 RES     
   16412 C5        -243.3723  -166.9552   330.3842 C5            1 RES     
   16413 C5        -242.7835  -168.3752   330.2496 C5            1 RES     
   16414 C5        -243.4531  -169.2717   329.1914 C5            1 RES     
   16415 C5        -244.9463  -169.5642   329.4390 C5            1 RES     
   16416 C5        -245.2157  -170.2696   330.7712 C5            1 RES     
   16417 H6        -249.9934  -155.5529   321.8757 H6            1 RES     
   16418 H6        -250.4491  -157.0857   321.0431 H6            1 RES     
   16419 H6        -251.1258  -156.6899   322.6559 H6            1 RES     
   16420 H6        -248.8949  -156.8386   323.7117 H6            1 RES     
   16421 H6        -249.3121  -158.4091   322.9196 H6            1 RES     
   16422 H6        -247.8021  -157.8132   320.9682 H6            1 RES     
   16423 H6        -247.5633  -156.2067   321.6980 H6            1 RES     
   16424 H6        -246.3186  -157.1433   323.6439 H6            1 RES     
   16425 H6        -245.4970  -157.3383   322.0541 H6            1 RES     
   16426 H6        -245.9638  -159.7788   322.0278 H6            1 RES     
   16427 H6        -246.9206  -159.5898   323.5016 H6            1 RES     
   16428 H6        -244.9874  -160.7847   324.1442 H6            1 RES     
   16429 H6        -244.8912  -159.1901   324.9460 H6            1 RES     
   16430 H6        -243.1705  -160.2643   322.6513 H6            1 RES     
   16431 H6        -242.8163  -158.7030   323.3769 H6            1 RES     
   16432 H6        -241.1173  -160.6810   323.6079 H6            1 RES     
   16433 H6        -242.2399  -161.5647   324.6400 H6            1 RES     
   16434 H6        -240.4047  -159.1391   325.4823 H6            1 RES     
   16435 H6        -241.5858  -159.9666   326.5166 H6            1 RES     
   16436 H6        -239.9530  -161.8234   327.0844 H6            1 RES     
   16437 H6        -239.6049  -160.2188   327.6771 H6            1 RES     
   16438 H6        -237.4519  -160.0511   326.8826 H6            1 RES     
   16439 H6        -236.4805  -161.0925   324.8474 H6            1 RES     
   16440 H6        -237.9549  -160.1413   324.8211 H6            1 RES     
   16441 H6        -239.4227  -162.2365   324.5889 H6            1 RES     
   16442 H6        -237.8828  -163.1063   324.3116 H6            1 RES     
   16443 H6        -237.5379  -161.4301   322.2979 H6            1 RES     
   16444 H6        -239.1252  -160.7696   322.6075 H6            1 RES     
   16445 H6        -239.1448  -162.4146   320.7020 H6            1 RES     
   16446 H6        -240.2696  -162.8825   322.0035 H6            1 RES     
   16447 H6        -238.7619  -164.5339   322.8721 H6            1 RES     
   16448 H6        -239.0573  -164.9095   321.1837 H6            1 RES     
   16449 H6        -236.5774  -163.1764   321.6716 H6            1 RES     
   16450 H6        -236.5706  -164.7465   322.4754 H6            1 RES     
   16451 H6        -236.8044  -165.9603   320.3941 H6            1 RES     
   16452 H6        -235.4118  -164.8199   320.3580 H6            1 RES     
   16453 H6        -236.7705  -163.2091   318.9806 H6            1 RES     
   16454 H6        -236.5654  -164.8254   318.2041 H6            1 RES     
   16455 H6        -238.1363  -164.4049   318.9737 H6            1 RES     
   16456 H6        -235.9143  -160.6281   328.3049 H6            1 RES     
   16457 H6        -235.4813  -161.8863   327.2597 H6            1 RES     
   16458 H6        -236.0556  -164.4907   328.6852 H6            1 RES     
   16459 H6        -236.5071  -164.4696   330.4253 H6            1 RES     
   16460 H6        -238.1950  -162.8405   328.3724 H6            1 RES     
   16461 H6        -239.9790  -163.0072   329.8650 H6            1 RES     
   16462 H6        -239.1109  -164.1863   330.8945 H6            1 RES     
   16463 H6        -239.3380  -161.9717   331.9094 H6            1 RES     
   16464 H6        -237.6241  -162.5008   331.7509 H6            1 RES     
   16465 H6        -237.2080  -160.8788   330.0348 H6            1 RES     
   16466 H6        -238.9331  -160.5624   329.7330 H6            1 RES     
   16467 H6        -237.7291  -158.7177   330.8541 H6            1 RES     
   16468 H6        -239.0482  -159.4300   331.8618 H6            1 RES     
   16469 H6        -237.3245  -160.8094   333.0689 H6            1 RES     
   16470 H6        -236.0027  -159.9832   332.1643 H6            1 RES     
   16471 H6        -236.7266  -157.8079   333.2092 H6            1 RES     
   16472 H6        -238.1870  -158.6383   333.8916 H6            1 RES     
   16473 H6        -235.2910  -159.2253   334.6079 H6            1 RES     
   16474 H6        -236.7192  -160.2117   335.1729 H6            1 RES     
   16475 H6        -236.1510  -157.2643   335.7702 H6            1 RES     
   16476 H6        -236.0249  -158.6749   336.9024 H6            1 RES     
   16477 H6        -237.6416  -158.1885   336.2605 H6            1 RES     
   16478 H6        -238.7119  -165.7573   328.8467 H6            1 RES     
   16479 H6        -237.8673  -165.0195   327.4526 H6            1 RES     
   16480 H6        -239.8175  -163.8739   326.6043 H6            1 RES     
   16481 H6        -239.9324  -165.6175   326.6767 H6            1 RES     
   16482 H6        -241.5976  -163.7072   328.4143 H6            1 RES     
   16483 H6        -242.0737  -164.7238   327.0271 H6            1 RES     
   16484 H6        -241.0839  -165.6667   329.7585 H6            1 RES     
   16485 H6        -241.3251  -166.7894   328.3539 H6            1 RES     
   16486 H6        -243.7243  -166.3822   328.2845 H6            1 RES     
   16487 H6        -243.5975  -165.0332   329.4610 H6            1 RES     
   16488 H6        -244.4533  -167.0163   330.6313 H6            1 RES     
   16489 H6        -242.8727  -166.4750   331.2530 H6            1 RES     
   16490 H6        -242.8540  -168.8767   331.2363 H6            1 RES     
   16491 H6        -241.6994  -168.3034   330.0249 H6            1 RES     
   16492 H6        -243.3380  -168.8086   328.1888 H6            1 RES     
   16493 H6        -242.9098  -170.2426   329.1753 H6            1 RES     
   16494 H6        -245.5369  -168.6264   329.3928 H6            1 RES     
   16495 H6        -245.3041  -170.2282   328.6222 H6            1 RES     
   16496 H6        -244.6483  -171.2230   330.8288 H6            1 RES     
   16497 H6        -244.9392  -169.6243   331.6300 H6            1 RES     
   16498 H6        -246.2991  -170.4965   330.8575 H6            1 RES     
   16499 C0        -225.4265  -165.5184   341.2703 C0            1 RES     
   16500 C0        -227.0839  -164.7948   341.6585 C0            1 RES     
   16501 C0        -227.9912  -165.8300   341.8449 C0            1 RES     
   16502 S1        -229.6480  -165.3790   341.9033 S1            1 RES     
   16503 C0        -229.5951  -163.7334   341.6923 C0            1 RES     
   16504 C0        -228.0563  -163.5270   341.5959 C0            1 RES     
   16505 C0        -227.4714  -167.1146   341.3745 C0            1 RES     
   16506 C0        -226.3631  -166.5149   340.5245 C0            1 RES     
   16507 C0        -226.7601  -166.3702   339.2309 C0            1 RES     
   16508 C0        -227.9914  -166.9394   338.9152 C0            1 RES     
   16509 S1        -228.7464  -167.8200   340.2549 S1            1 RES     
   16510 H2        -227.7192  -162.5263   341.3537 H2            1 RES     
   16511 H2        -226.2863  -165.6966   338.5357 H2            1 RES     
   16512 N3        -233.5616  -163.4886   341.2923 N3            1 RES     
   16513 C0        -232.2799  -163.8774   341.3717 C0            1 RES     
   16514 C0        -231.1189  -162.9981   341.5973 C0            1 RES     
   16515 C0        -231.6128  -161.6096   341.7085 C0            1 RES     
   16516 N3        -230.8266  -160.5055   341.9130 N3            1 RES     
   16517 S1        -231.9193  -159.2501   341.9852 S1            1 RES     
   16518 N3        -233.3812  -159.9820   341.7459 N3            1 RES     
   16519 C0        -233.0343  -161.2691   341.6125 C0            1 RES     
   16520 C0        -234.0131  -162.2086   341.3991 C0            1 RES     
   16521 H4        -232.1523  -164.9291   341.2416 H4            1 RES     
   16522 C5        -210.6472  -177.3246   345.5600 C5            1 RES     
   16523 C5        -211.8287  -176.3206   345.4391 C5            1 RES     
   16524 C5        -211.5643  -175.1515   344.4346 C5            1 RES     
   16525 C5        -212.8025  -174.2332   343.9850 C5            1 RES     
   16526 C5        -213.4328  -173.1554   344.9685 C5            1 RES     
   16527 C5        -214.8598  -172.3555   344.6511 C5            1 RES     
   16528 C5        -215.1145  -171.1068   343.5977 C5            1 RES     
   16529 C5        -216.4712  -169.9992   343.4858 C5            1 RES     
   16530 C5        -217.9731  -170.0392   342.6778 C5            1 RES     
   16531 C5        -219.4879  -169.0750   342.5381 C5            1 RES     
   16532 C5        -220.1406  -167.7046   341.6049 C5            1 RES     
   16533 C5        -218.7101  -166.9789   341.2875 C5            1 RES     
   16534 C5        -217.7091  -166.5810   342.4659 C5            1 RES     
   16535 C5        -216.1864  -166.3900   342.0498 C5            1 RES     
   16536 C5        -215.2311  -165.8223   343.1685 C5            1 RES     
   16537 C5        -215.7477  -164.5308   343.8394 C5            1 RES     
   16538 C5        -216.0914  -163.3939   342.8466 C5            1 RES     
   16539 C5        -215.1990  -162.1488   342.9089 C5            1 RES     
   16540 C5        -213.7243  -162.4052   342.6183 C5            1 RES     
   16541 C5        -221.8631  -166.8212   341.2132 C5            1 RES     
   16542 C0        -223.6748  -166.3401   341.7771 C0            1 RES     
   16543 C5        -223.4541  -166.1303   343.2971 C5            1 RES     
   16544 C5        -222.4951  -167.1845   344.0349 C5            1 RES     
   16545 C5        -223.2237  -168.4657   344.4754 C5            1 RES     
   16546 C5        -224.0766  -169.2020   343.4166 C5            1 RES     
   16547 C5        -223.3560  -169.5620   342.0990 C5            1 RES     
   16548 C5        -224.0926  -170.5686   341.2250 C5            1 RES     
   16549 C5        -225.5250  -170.1323   340.9153 C5            1 RES     
   16550 C5        -226.3003  -171.2695   340.2580 C5            1 RES     
   16551 C5        -227.7845  -170.9297   340.2570 C5            1 RES     
   16552 C5        -228.6489  -172.0868   339.8112 C5            1 RES     
   16553 C5        -221.6953  -166.5063   345.1990 C5            1 RES     
   16554 C5        -220.3838  -167.1402   345.8029 C5            1 RES     
   16555 C5        -220.3997  -168.3650   346.7576 C5            1 RES     
   16556 C5        -221.3352  -168.1575   347.9556 C5            1 RES     
   16557 C5        -221.1452  -169.1995   349.0810 C5            1 RES     
   16558 C5        -222.3266  -169.1908   350.0761 C5            1 RES     
   16559 C5        -222.6239  -167.8420   350.7643 C5            1 RES     
   16560 C5        -221.5435  -167.3465   351.7436 C5            1 RES     
   16561 C5        -221.2850  -168.2728   352.9484 C5            1 RES     
   16562 C5        -222.5238  -168.4984   353.8196 C5            1 RES     
   16563 H6        -210.4187  -177.8092   344.5833 H6            1 RES     
   16564 H6        -209.7176  -176.8479   345.9379 H6            1 RES     
   16565 H6        -210.9060  -178.1502   346.2656 H6            1 RES     
   16566 H6        -212.6953  -176.9174   345.0856 H6            1 RES     
   16567 H6        -212.0509  -175.9208   346.4491 H6            1 RES     
   16568 H6        -210.6979  -174.5516   344.7944 H6            1 RES     
   16569 H6        -211.2161  -175.6702   343.5095 H6            1 RES     
   16570 H6        -213.5939  -174.9391   343.6665 H6            1 RES     
   16571 H6        -212.4481  -173.6731   343.0965 H6            1 RES     
   16572 H6        -212.6227  -172.4408   345.2472 H6            1 RES     
   16573 H6        -213.6142  -173.7530   345.8938 H6            1 RES     
   16574 H6        -215.0729  -171.9116   345.6488 H6            1 RES     
   16575 H6        -215.6085  -173.1464   344.4727 H6            1 RES     
   16576 H6        -214.2633  -170.4527   343.9119 H6            1 RES     
   16577 H6        -214.8253  -171.4621   342.5873 H6            1 RES     
   16578 H6        -215.9379  -169.1357   343.0369 H6            1 RES     
   16579 H6        -216.6233  -169.7222   344.5510 H6            1 RES     
   16580 H6        -217.6902  -170.3081   341.6391 H6            1 RES     
   16581 H6        -218.3485  -170.9708   343.1481 H6            1 RES     
   16582 H6        -219.7302  -168.8892   343.5890 H6            1 RES     
   16583 H6        -220.1609  -169.8817   342.2190 H6            1 RES     
   16584 H6        -220.1679  -168.2255   340.6216 H6            1 RES     
   16585 H6        -218.7910  -166.1595   340.5453 H6            1 RES     
   16586 H6        -218.1005  -167.7586   340.7586 H6            1 RES     
   16587 H6        -217.6778  -167.3534   343.2596 H6            1 RES     
   16588 H6        -218.0991  -165.6500   342.9055 H6            1 RES     
   16589 H6        -216.1133  -165.7369   341.1643 H6            1 RES     
   16590 H6        -215.7361  -167.3524   341.7117 H6            1 RES     
   16591 H6        -214.2168  -165.6299   342.7423 H6            1 RES     
   16592 H6        -215.0878  -166.5789   343.9746 H6            1 RES     
   16593 H6        -216.6718  -164.8226   344.3758 H6            1 RES     
   16594 H6        -215.0652  -164.1699   344.6431 H6            1 RES     
   16595 H6        -216.1376  -163.7482   341.8036 H6            1 RES     
   16596 H6        -217.1164  -163.0454   343.0918 H6            1 RES     
   16597 H6        -215.2943  -161.6775   343.9095 H6            1 RES     
   16598 H6        -215.5855  -161.4328   342.1498 H6            1 RES     
   16599 H6        -213.5910  -162.8756   341.6222 H6            1 RES     
   16600 H6        -213.1890  -161.4304   342.6258 H6            1 RES     
   16601 H6        -213.2779  -163.0512   343.4017 H6            1 RES     
   16602 H6        -222.1130  -167.3300   340.2542 H6            1 RES     
   16603 H6        -221.4905  -165.8569   340.8073 H6            1 RES     
   16604 H6        -222.9909  -165.1254   343.3288 H6            1 RES     
   16605 H6        -224.4329  -166.0835   343.8135 H6            1 RES     
   16606 H6        -221.6954  -167.5160   343.3993 H6            1 RES     
   16607 H6        -222.4634  -169.1757   344.8462 H6            1 RES     
   16608 H6        -223.8981  -168.2139   345.3155 H6            1 RES     
   16609 H6        -224.4228  -170.1392   343.9000 H6            1 RES     
   16610 H6        -224.9648  -168.5755   343.1904 H6            1 RES     
   16611 H6        -223.2868  -168.6884   341.4814 H6            1 RES     
   16612 H6        -222.3480  -169.9570   342.3036 H6            1 RES     
   16613 H6        -223.5346  -170.7093   340.2701 H6            1 RES     
   16614 H6        -224.1021  -171.5295   341.7762 H6            1 RES     
   16615 H6        -226.0347  -169.9211   341.8742 H6            1 RES     
   16616 H6        -225.5463  -169.2089   340.2923 H6            1 RES     
   16617 H6        -225.9280  -171.4600   339.2271 H6            1 RES     
   16618 H6        -226.1627  -172.1831   340.8734 H6            1 RES     
   16619 H6        -227.9406  -170.0945   339.5611 H6            1 RES     
   16620 H6        -228.1017  -170.6542   341.2910 H6            1 RES     
   16621 H6        -228.4143  -172.3462   338.7601 H6            1 RES     
   16622 H6        -229.7146  -171.7828   339.8911 H6            1 RES     
   16623 H6        -228.4751  -172.9605   340.4734 H6            1 RES     
   16624 H6        -222.3852  -166.1999   346.0055 H6            1 RES     
   16625 H6        -221.2888  -165.5790   344.7353 H6            1 RES     
   16626 H6        -219.6418  -167.3257   345.0034 H6            1 RES     
   16627 H6        -219.9284  -166.3292   346.4117 H6            1 RES     
   16628 H6        -220.6542  -169.3095   346.2330 H6            1 RES     
   16629 H6        -219.3571  -168.4855   347.1401 H6            1 RES     
   16630 H6        -222.3700  -168.2118   347.5605 H6            1 RES     
   16631 H6        -221.1560  -167.1539   348.3963 H6            1 RES     
   16632 H6        -220.1785  -169.0257   349.6077 H6            1 RES     
   16633 H6        -221.1075  -170.2215   348.6447 H6            1 RES     
   16634 H6        -222.1795  -169.9814   350.8420 H6            1 RES     
   16635 H6        -223.2340  -169.4703   349.4986 H6            1 RES     
   16636 H6        -223.5841  -167.9341   351.3114 H6            1 RES     
   16637 H6        -222.7911  -167.0643   349.9910 H6            1 RES     
   16638 H6        -220.5901  -167.1938   351.1953 H6            1 RES     
   16639 H6        -221.8668  -166.3558   352.1338 H6            1 RES     
   16640 H6        -220.8923  -169.2521   352.6059 H6            1 RES     
   16641 H6        -220.5034  -167.7993   353.5816 H6            1 RES     
   16642 H6        -222.9211  -167.5293   354.1901 H6            1 RES     
   16643 H6        -223.3180  -169.0311   353.2577 H6            1 RES     
   16644 H6        -222.2523  -169.1272   354.6936 H6            1 RES     
   16645 C0        -238.5342  -161.8119   338.8739 C0            1 RES     
   16646 C0        -238.1952  -163.5439   339.4277 C0            1 RES     
   16647 C0        -238.1995  -163.5783   340.8164 C0            1 RES     
   16648 S1        -237.5972  -165.0170   341.5368 S1            1 RES     
   16649 C0        -237.1754  -165.9433   340.2255 C0            1 RES     
   16650 C0        -237.6024  -164.9866   339.0757 C0            1 RES     
   16651 C0        -238.1422  -162.2394   341.4045 C0            1 RES     
   16652 C0        -237.6622  -161.5499   340.1377 C0            1 RES     
   16653 C0        -236.3058  -161.4398   340.1225 C0            1 RES     
   16654 C0        -235.6620  -161.8064   341.3018 C0            1 RES     
   16655 S1        -236.7614  -162.2560   342.6169 S1            1 RES     
   16656 H2        -237.3492  -165.2999   338.0700 H2            1 RES     
   16657 H2        -235.7321  -161.2873   339.2230 H2            1 RES     
   16658 N3        -235.3600  -168.6630   342.5192 N3            1 RES     
   16659 C0        -235.9469  -167.5703   342.0076 C0            1 RES     
   16660 C0        -236.4363  -167.4147   340.6261 C0            1 RES     
   16661 C0        -236.1558  -168.6702   339.8985 C0            1 RES     
   16662 N3        -236.4589  -168.9050   338.5825 N3            1 RES     
   16663 S1        -235.9495  -170.4715   338.3331 S1            1 RES     
   16664 N3        -235.3185  -170.9208   339.7925 N3            1 RES     
   16665 C0        -235.5111  -169.8217   340.5340 C0            1 RES     
   16666 C0        -235.1068  -169.8193   341.8465 C0            1 RES     
   16667 H4        -236.0294  -166.7711   342.7102 H4            1 RES     
   16668 C5        -249.5093  -145.8196   338.9562 C5            1 RES     
   16669 C5        -248.8278  -147.2172   338.9311 C5            1 RES     
   16670 C5        -247.8201  -147.4078   337.7503 C5            1 RES     
   16671 C5        -246.8281  -148.6699   337.7863 C5            1 RES     
   16672 C5        -247.3504  -150.1413   337.4886 C5            1 RES     
   16673 C5        -246.4308  -151.5060   337.7512 C5            1 RES     
   16674 C5        -245.1817  -152.0838   336.8349 C5            1 RES     
   16675 C5        -244.4308  -153.6700   336.8438 C5            1 RES     
   16676 C5        -243.1574  -154.3759   337.7328 C5            1 RES     
   16677 C5        -242.3461  -155.9694   337.9481 C5            1 RES     
   16678 C5        -241.0483  -156.9401   337.2076 C5            1 RES     
   16679 C5        -241.1553  -156.3047   335.7048 C5            1 RES     
   16680 C5        -242.5389  -156.3027   334.9082 C5            1 RES     
   16681 C5        -242.6677  -155.2304   333.7411 C5            1 RES     
   16682 C5        -243.9546  -155.3451   332.8373 C5            1 RES     
   16683 C5        -244.1969  -156.7594   332.2663 C5            1 RES     
   16684 C5        -242.9889  -157.3496   331.4992 C5            1 RES     
   16685 C5        -243.1774  -157.5490   329.9908 C5            1 RES     
   16686 C5        -243.4716  -156.2728   329.2101 C5            1 RES     
   16687 C5        -239.9427  -158.5324   337.5860 C5            1 RES     
   16688 C0        -239.7472  -160.2808   338.4441 C0            1 RES     
   16689 C5        -241.1968  -160.8182   338.3298 C5            1 RES     
   16690 C5        -242.3759  -159.7664   338.6105 C5            1 RES     
   16691 C5        -242.7148  -159.6161   340.1035 C5            1 RES     
   16692 C5        -241.5449  -159.3468   341.0778 C5            1 RES     
   16693 C5        -240.6391  -158.1451   340.7309 C5            1 RES     
   16694 C5        -239.7212  -157.6932   341.8592 C5            1 RES     
   16695 C5        -238.8612  -158.8346   342.4027 C5            1 RES     
   16696 C5        -238.1491  -158.4058   343.6816 C5            1 RES     
   16697 C5        -237.5699  -159.6347   344.3692 C5            1 RES     
   16698 C5        -237.0244  -159.3315   345.7459 C5            1 RES     
   16699 C5        -243.6329  -160.0739   337.7272 C5            1 RES     
   16700 C5        -244.7510  -158.9977   337.4472 C5            1 RES     
   16701 C5        -245.8093  -158.5838   338.5057 C5            1 RES     
   16702 C5        -246.5511  -159.7924   339.0910 C5            1 RES     
   16703 C5        -247.8128  -159.4157   339.9001 C5            1 RES     
   16704 C5        -248.3098  -160.5925   340.7684 C5            1 RES     
   16705 C5        -248.6375  -161.8994   340.0163 C5            1 RES     
   16706 C5        -249.8511  -161.8320   339.0704 C5            1 RES     
   16707 C5        -251.1930  -161.5106   339.7576 C5            1 RES     
   16708 C5        -251.5904  -162.5334   340.8256 C5            1 RES     
   16709 H6        -248.7617  -145.0001   339.0597 H6            1 RES     
   16710 H6        -250.1170  -145.6234   338.0473 H6            1 RES     
   16711 H6        -250.1917  -145.7329   339.8356 H6            1 RES     
   16712 H6        -248.2828  -147.3033   339.8943 H6            1 RES     
   16713 H6        -249.6210  -147.9910   338.8923 H6            1 RES     
   16714 H6        -248.3704  -147.3262   336.7858 H6            1 RES     
   16715 H6        -247.1679  -146.5039   337.8097 H6            1 RES     
   16716 H6        -246.3584  -148.6485   338.7888 H6            1 RES     
   16717 H6        -246.0504  -148.4567   337.0256 H6            1 RES     
   16718 H6        -247.7887  -150.1409   336.4628 H6            1 RES     
   16719 H6        -248.2290  -150.2260   338.1721 H6            1 RES     
   16720 H6        -247.2093  -152.2968   337.6715 H6            1 RES     
   16721 H6        -246.1183  -151.4529   338.8083 H6            1 RES     
   16722 H6        -245.6764  -152.0301   335.8331 H6            1 RES     
   16723 H6        -244.4053  -151.2922   336.7972 H6            1 RES     
   16724 H6        -244.0771  -153.6868   335.7920 H6            1 RES     
   16725 H6        -245.3182  -154.3384   336.8603 H6            1 RES     
   16726 H6        -242.3398  -153.6329   337.6299 H6            1 RES     
   16727 H6        -243.5973  -154.2159   338.7383 H6            1 RES     
   16728 H6        -243.2019  -156.6365   338.0898 H6            1 RES     
   16729 H6        -241.9331  -155.8031   338.9517 H6            1 RES     
   16730 H6        -240.2091  -156.2702   337.5010 H6            1 RES     
   16731 H6        -240.3193  -156.6063   335.0423 H6            1 RES     
   16732 H6        -241.0005  -155.2021   335.8446 H6            1 RES     
   16733 H6        -243.3979  -156.0836   335.5729 H6            1 RES     
   16734 H6        -242.6668  -157.3182   334.5025 H6            1 RES     
   16735 H6        -241.7790  -155.2693   333.0894 H6            1 RES     
   16736 H6        -242.6596  -154.1910   334.1447 H6            1 RES     
   16737 H6        -243.8930  -154.6175   331.9920 H6            1 RES     
   16738 H6        -244.8623  -155.0639   333.4200 H6            1 RES     
   16739 H6        -244.4070  -157.4028   333.1431 H6            1 RES     
   16740 H6        -245.1272  -156.8147   331.6550 H6            1 RES     
   16741 H6        -242.0629  -156.7761   331.6705 H6            1 RES     
   16742 H6        -242.7987  -158.3600   331.9177 H6            1 RES     
   16743 H6        -243.9963  -158.2777   329.8156 H6            1 RES     
   16744 H6        -242.2326  -157.9880   329.5998 H6            1 RES     
   16745 H6        -242.6703  -155.5203   329.3611 H6            1 RES     
   16746 H6        -243.5232  -156.5255   328.1282 H6            1 RES     
   16747 H6        -244.4497  -155.8459   329.5128 H6            1 RES     
   16748 H6        -239.0451  -158.0311   338.0149 H6            1 RES     
   16749 H6        -239.5564  -158.7384   336.5653 H6            1 RES     
   16750 H6        -241.2405  -161.1481   337.2741 H6            1 RES     
   16751 H6        -241.3184  -161.7056   338.9815 H6            1 RES     
   16752 H6        -242.1232  -158.7781   338.2750 H6            1 RES     
   16753 H6        -243.4333  -158.7835   340.2042 H6            1 RES     
   16754 H6        -243.2128  -160.5434   340.4447 H6            1 RES     
   16755 H6        -242.0079  -159.1682   342.0705 H6            1 RES     
   16756 H6        -240.9269  -160.2671   341.1398 H6            1 RES     
   16757 H6        -239.9632  -158.4240   339.9467 H6            1 RES     
   16758 H6        -241.2451  -157.2814   340.4138 H6            1 RES     
   16759 H6        -239.0595  -156.8737   341.4937 H6            1 RES     
   16760 H6        -240.3701  -157.2941   342.6636 H6            1 RES     
   16761 H6        -239.5332  -159.6670   342.6843 H6            1 RES     
   16762 H6        -238.1408  -159.2048   341.6376 H6            1 RES     
   16763 H6        -237.3587  -157.6541   343.4629 H6            1 RES     
   16764 H6        -238.9024  -157.9596   344.3640 H6            1 RES     
   16765 H6        -236.7475  -160.0145   343.7483 H6            1 RES     
   16766 H6        -238.3701  -160.4036   344.4885 H6            1 RES     
   16767 H6        -236.1766  -158.6229   345.6650 H6            1 RES     
   16768 H6        -236.6739  -160.2813   346.2039 H6            1 RES     
   16769 H6        -237.8277  -158.9028   346.3807 H6            1 RES     
   16770 H6        -244.0861  -161.0339   338.0327 H6            1 RES     
   16771 H6        -243.2109  -160.2123   336.7060 H6            1 RES     
   16772 H6        -244.3047  -158.0810   337.0173 H6            1 RES     
   16773 H6        -245.3534  -159.4214   336.6144 H6            1 RES     
   16774 H6        -245.3759  -157.9693   339.3222 H6            1 RES     
   16775 H6        -246.5507  -157.9348   337.9795 H6            1 RES     
   16776 H6        -245.8269  -160.3209   339.7437 H6            1 RES     
   16777 H6        -246.8715  -160.4650   338.2673 H6            1 RES     
   16778 H6        -248.6164  -159.0572   339.2160 H6            1 RES     
   16779 H6        -247.5764  -158.5847   340.6000 H6            1 RES     
   16780 H6        -249.1869  -160.2725   341.3697 H6            1 RES     
   16781 H6        -247.4962  -160.8250   341.4889 H6            1 RES     
   16782 H6        -248.8149  -162.6976   340.7655 H6            1 RES     
   16783 H6        -247.7484  -162.2224   339.4367 H6            1 RES     
   16784 H6        -249.6612  -161.0764   338.2793 H6            1 RES     
   16785 H6        -249.9481  -162.8215   338.5708 H6            1 RES     
   16786 H6        -251.1630  -160.4983   340.2102 H6            1 RES     
   16787 H6        -251.9843  -161.5070   338.9766 H6            1 RES     
   16788 H6        -251.6462  -163.5526   340.3871 H6            1 RES     
   16789 H6        -250.8692  -162.5343   341.6684 H6            1 RES     
   16790 H6        -252.5872  -162.2701   341.2377 H6            1 RES     
   16791 C0        -231.1107  -172.2370   344.1183 C0            1 RES     
   16792 C0        -232.0010  -171.1136   345.2873 C0            1 RES     
   16793 C0        -233.2860  -171.6025   345.4861 C0            1 RES     
   16794 S1        -234.3798  -170.5452   346.2846 S1            1 RES     
   16795 C0        -233.4582  -169.1923   346.5598 C0            1 RES     
   16796 C0        -232.1025  -169.6682   345.9637 C0            1 RES     
   16797 C0        -233.6489  -172.6242   344.5032 C0            1 RES     
   16798 C0        -232.5476  -172.2685   343.5177 C0            1 RES     
   16799 C0        -232.9991  -171.4054   342.5673 C0            1 RES     
   16800 C0        -234.3709  -171.1648   342.5800 C0            1 RES     
   16801 S1        -235.2608  -172.1131   343.7839 S1            1 RES     
   16802 H2        -231.3114  -168.9295   345.9175 H2            1 RES     
   16803 H2        -232.3503  -170.7807   341.9755 H2            1 RES     
   16804 N3        -236.6262  -167.0718   347.7518 N3            1 RES     
   16805 C0        -235.7822  -167.9763   347.2322 C0            1 RES     
   16806 C0        -234.3104  -167.9040   347.2568 C0            1 RES     
   16807 C0        -233.9264  -166.6531   347.9438 C0            1 RES     
   16808 N3        -232.6395  -166.2308   348.1547 N3            1 RES     
   16809 S1        -232.8245  -164.8018   348.9909 S1            1 RES     
   16810 N3        -234.4625  -164.6202   349.1090 N3            1 RES     
   16811 C0        -234.9140  -165.7173   348.4865 C0            1 RES     
   16812 C0        -236.2683  -165.9223   348.3875 C0            1 RES     
   16813 H4        -236.2818  -168.7945   346.7628 H4            1 RES     
   16814 C5        -224.8961  -189.8722   338.9614 C5            1 RES     
   16815 C5        -225.3241  -188.5142   339.5869 C5            1 RES     
   16816 C5        -224.6211  -187.2733   338.9450 C5            1 RES     
   16817 C5        -225.1955  -185.8110   339.2769 C5            1 RES     
   16818 C5        -224.9551  -185.1297   340.6926 C5            1 RES     
   16819 C5        -225.7282  -183.7350   341.1765 C5            1 RES     
   16820 C5        -225.4130  -182.1811   340.7075 C5            1 RES     
   16821 C5        -225.9251  -180.6690   341.4363 C5            1 RES     
   16822 C5        -227.3035  -179.6777   341.2702 C5            1 RES     
   16823 C5        -228.0286  -178.1951   341.9914 C5            1 RES     
   16824 C5        -227.9517  -176.4241   341.8116 C5            1 RES     
   16825 C5        -226.4321  -176.3492   341.2127 C5            1 RES     
   16826 C5        -225.2050  -177.0049   341.9958 C5            1 RES     
   16827 C5        -223.9222  -177.3437   341.1195 C5            1 RES     
   16828 C5        -222.6479  -177.8204   341.9165 C5            1 RES     
   16829 C5        -222.2464  -176.8838   343.0770 C5            1 RES     
   16830 C5        -222.0561  -175.4048   342.6618 C5            1 RES     
   16831 C5        -220.6271  -174.8562   342.7491 C5            1 RES     
   16832 C5        -219.6114  -175.5781   341.8704 C5            1 RES     
   16833 C5        -228.9317  -174.8007   342.3642 C5            1 RES     
   16834 C0        -230.0542  -173.8763   343.6744 C0            1 RES     
   16835 C5        -229.5139  -174.4858   344.9934 C5            1 RES     
   16836 C5        -229.1967  -176.0589   344.9795 C5            1 RES     
   16837 C5        -230.4313  -176.9313   345.2640 C5            1 RES     
   16838 C5        -231.7058  -176.6579   344.4324 C5            1 RES     
   16839 C5        -231.5281  -176.6712   342.8985 C5            1 RES     
   16840 C5        -232.8278  -176.7418   342.1076 C5            1 RES     
   16841 C5        -233.8056  -175.6316   342.4940 C5            1 RES     
   16842 C5        -235.1745  -175.8833   341.8703 C5            1 RES     
   16843 C5        -236.1985  -174.9625   342.5199 C5            1 RES     
   16844 C5        -237.6173  -175.2844   342.1100 C5            1 RES     
   16845 C5        -227.9809  -176.4009   345.9067 C5            1 RES     
   16846 C5        -227.1643  -177.7426   345.7666 C5            1 RES     
   16847 C5        -227.7030  -179.1145   346.2561 C5            1 RES     
   16848 C5        -228.1600  -179.0720   347.7200 C5            1 RES     
   16849 C5        -228.4019  -180.4682   348.3368 C5            1 RES     
   16850 C5        -229.2023  -180.3819   349.6551 C5            1 RES     
   16851 C5        -228.5872  -179.5053   350.7660 C5            1 RES     
   16852 C5        -227.2730  -180.0316   351.3727 C5            1 RES     
   16853 C5        -227.3821  -181.4031   352.0679 C5            1 RES     
   16854 C5        -228.3793  -181.4190   353.2299 C5            1 RES     
   16855 H6        -225.1348  -189.9167   337.8742 H6            1 RES     
   16856 H6        -223.8122  -190.0792   339.0885 H6            1 RES     
   16857 H6        -225.4520  -190.7149   339.4382 H6            1 RES     
   16858 H6        -226.4193  -188.4394   339.4229 H6            1 RES     
   16859 H6        -225.1219  -188.5533   340.6764 H6            1 RES     
   16860 H6        -223.5234  -187.3484   339.1157 H6            1 RES     
   16861 H6        -224.7726  -187.4202   337.8489 H6            1 RES     
   16862 H6        -226.2842  -185.8700   339.0838 H6            1 RES     
   16863 H6        -224.7382  -185.1361   338.5259 H6            1 RES     
   16864 H6        -223.8528  -185.0544   340.8462 H6            1 RES     
   16865 H6        -225.2862  -185.9266   341.4009 H6            1 RES     
   16866 H6        -225.4961  -183.7384   342.2646 H6            1 RES     
   16867 H6        -226.8067  -183.9414   341.0662 H6            1 RES     
   16868 H6        -224.3048  -182.1869   340.8595 H6            1 RES     
   16869 H6        -225.5358  -182.1367   339.6058 H6            1 RES     
   16870 H6        -225.0829  -180.0320   341.0949 H6            1 RES     
   16871 H6        -225.7249  -180.8593   342.5125 H6            1 RES     
   16872 H6        -227.3880  -179.5505   340.1712 H6            1 RES     
   16873 H6        -228.0510  -180.4470   341.5520 H6            1 RES     
   16874 H6        -227.9549  -178.4104   343.0617 H6            1 RES     
   16875 H6        -229.0765  -178.3848   341.7243 H6            1 RES     
   16876 H6        -228.4205  -176.3809   340.8030 H6            1 RES     
   16877 H6        -226.1630  -175.3450   340.8280 H6            1 RES     
   16878 H6        -226.4512  -176.9911   340.2924 H6            1 RES     
   16879 H6        -225.4802  -177.9735   342.4581 H6            1 RES     
   16880 H6        -224.9370  -176.3025   342.8001 H6            1 RES     
   16881 H6        -223.6425  -176.4733   340.5027 H6            1 RES     
   16882 H6        -224.1420  -178.1423   340.3731 H6            1 RES     
   16883 H6        -221.7812  -177.9289   341.2205 H6            1 RES     
   16884 H6        -222.8210  -178.8316   342.3527 H6            1 RES     
   16885 H6        -223.0769  -176.9415   343.8076 H6            1 RES     
   16886 H6        -221.3600  -177.2613   343.6373 H6            1 RES     
   16887 H6        -222.4575  -175.1968   341.6562 H6            1 RES     
   16888 H6        -222.6608  -174.7894   343.3604 H6            1 RES     
   16889 H6        -220.2833  -174.8915   343.8040 H6            1 RES     
   16890 H6        -220.6677  -173.7901   342.4327 H6            1 RES     
   16891 H6        -219.9231  -175.5609   340.8056 H6            1 RES     
   16892 H6        -218.6327  -175.0582   341.9631 H6            1 RES     
   16893 H6        -219.4793  -176.6270   342.2063 H6            1 RES     
   16894 H6        -229.5716  -174.6607   341.4631 H6            1 RES     
   16895 H6        -228.1580  -174.0334   342.1498 H6            1 RES     
   16896 H6        -228.5736  -173.9213   345.1430 H6            1 RES     
   16897 H6        -230.2046  -174.2466   345.8257 H6            1 RES     
   16898 H6        -228.8292  -176.3879   344.0256 H6            1 RES     
   16899 H6        -230.1445  -177.9853   345.1010 H6            1 RES     
   16900 H6        -230.7078  -176.8106   346.3285 H6            1 RES     
   16901 H6        -232.4305  -177.4503   344.7133 H6            1 RES     
   16902 H6        -232.1202  -175.6768   344.7460 H6            1 RES     
   16903 H6        -231.0864  -175.7463   342.5837 H6            1 RES     
   16904 H6        -230.8910  -177.5151   342.5891 H6            1 RES     
   16905 H6        -232.6033  -176.6736   341.0177 H6            1 RES     
   16906 H6        -233.2798  -177.7315   342.3162 H6            1 RES     
   16907 H6        -233.9510  -175.6680   343.5901 H6            1 RES     
   16908 H6        -233.4110  -174.6256   342.2226 H6            1 RES     
   16909 H6        -235.1413  -175.7380   340.7679 H6            1 RES     
   16910 H6        -235.4699  -176.9296   342.0947 H6            1 RES     
   16911 H6        -235.9747  -173.9334   342.2085 H6            1 RES     
   16912 H6        -236.1391  -175.0673   343.6295 H6            1 RES     
   16913 H6        -237.7381  -175.1230   341.0206 H6            1 RES     
   16914 H6        -238.3065  -174.6123   342.6650 H6            1 RES     
   16915 H6        -237.8535  -176.3364   342.3737 H6            1 RES     
   16916 H6        -228.2452  -176.2159   346.9632 H6            1 RES     
   16917 H6        -227.2092  -175.6517   345.6179 H6            1 RES     
   16918 H6        -226.7893  -177.8596   344.7323 H6            1 RES     
   16919 H6        -226.2451  -177.5823   346.3711 H6            1 RES     
   16920 H6        -228.5186  -179.5050   345.6124 H6            1 RES     
   16921 H6        -226.8570  -179.8389   346.1708 H6            1 RES     
   16922 H6        -229.0986  -178.4817   347.7402 H6            1 RES     
   16923 H6        -227.3867  -178.5649   348.3351 H6            1 RES     
   16924 H6        -227.4315  -180.9938   348.4928 H6            1 RES     
   16925 H6        -229.0075  -181.0875   347.6397 H6            1 RES     
   16926 H6        -229.3976  -181.4035   350.0445 H6            1 RES     
   16927 H6        -230.1910  -179.9423   349.4014 H6            1 RES     
   16928 H6        -229.3347  -179.3962   351.5779 H6            1 RES     
   16929 H6        -228.4166  -178.4816   350.3739 H6            1 RES     
   16930 H6        -226.4977  -180.0900   350.5801 H6            1 RES     
   16931 H6        -226.9254  -179.2901   352.1261 H6            1 RES     
   16932 H6        -227.6592  -182.1876   351.3342 H6            1 RES     
   16933 H6        -226.3798  -181.6607   352.4741 H6            1 RES     
   16934 H6        -228.1072  -180.6530   353.9871 H6            1 RES     
   16935 H6        -229.4133  -181.2337   352.8739 H6            1 RES     
   16936 H6        -228.3659  -182.4174   353.7156 H6            1 RES     
   16937 C0        -240.1460  -162.4941   347.9567 C0            1 RES     
   16938 C0        -240.7404  -164.2398   347.8129 C0            1 RES     
   16939 C0        -240.5402  -164.8819   349.0283 C0            1 RES     
   16940 S1        -240.7302  -166.5894   349.0192 S1            1 RES     
   16941 C0        -241.1094  -166.9148   347.4363 C0            1 RES     
   16942 C0        -241.1123  -165.4695   346.8610 C0            1 RES     
   16943 C0        -239.6570  -164.1251   349.9165 C0            1 RES     
   16944 C0        -239.0859  -163.2368   348.8233 C0            1 RES     
   16945 C0        -237.9195  -163.7432   348.3384 C0            1 RES     
   16946 C0        -237.4077  -164.8375   349.0315 C0            1 RES     
   16947 S1        -238.3440  -165.2867   350.4675 S1            1 RES     
   16948 H2        -241.2404  -165.3786   345.7891 H2            1 RES     
   16949 H2        -237.5107  -163.4780   347.3772 H2            1 RES     
   16950 N3        -240.7664  -170.8556   347.9891 N3            1 RES     
   16951 C0        -240.7221  -169.5174   348.0753 C0            1 RES     
   16952 C0        -241.2571  -168.5660   347.0850 C0            1 RES     
   16953 C0        -241.8406  -169.3449   345.9728 C0            1 RES     
   16954 N3        -242.4294  -168.8092   344.8568 N3            1 RES     
   16955 S1        -242.9216  -170.1441   343.9902 S1            1 RES     
   16956 N3        -242.4213  -171.4217   344.9109 N3            1 RES     
   16957 C0        -241.8505  -170.8096   345.9571 C0            1 RES     
   16958 C0        -241.3084  -171.5696   346.9643 C0            1 RES     
   16959 H4        -240.2338  -169.1704   348.9587 H4            1 RES     
   16960 C5        -240.2320  -145.2197   356.7773 C5            1 RES     
   16961 C5        -240.4541  -146.5988   356.0938 C5            1 RES     
   16962 C5        -239.9262  -146.6676   354.6232 C5            1 RES     
   16963 C5        -239.8097  -148.1054   353.9178 C5            1 RES     
   16964 C5        -241.0996  -148.8890   353.4195 C5            1 RES     
   16965 C5        -241.0629  -150.4755   352.9107 C5            1 RES     
   16966 C5        -240.5100  -151.0702   351.4705 C5            1 RES     
   16967 C5        -240.7744  -152.6420   350.7360 C5            1 RES     
   16968 C5        -239.9832  -154.1497   350.8405 C5            1 RES     
   16969 C5        -240.1693  -155.8456   350.2633 C5            1 RES     
   16970 C5        -239.7661  -156.8462   348.8452 C5            1 RES     
   16971 C5        -239.7424  -155.6359   347.7461 C5            1 RES     
   16972 C5        -240.9990  -154.6691   347.5584 C5            1 RES     
   16973 C5        -240.6970  -153.2579   346.8909 C5            1 RES     
   16974 C5        -241.9565  -152.3771   346.5387 C5            1 RES     
   16975 C5        -243.0300  -153.1186   345.7123 C5            1 RES     
   16976 C5        -242.4935  -153.7712   344.4151 C5            1 RES     
   16977 C5        -242.9999  -153.1729   343.0975 C5            1 RES     
   16978 C5        -242.6580  -151.7013   342.8916 C5            1 RES     
   16979 C5        -239.6850  -158.7437   348.3028 C5            1 RES     
   16980 C0        -240.3569  -160.5740   348.4757 C0            1 RES     
   16981 C5        -241.8570  -160.3019   348.7562 C5            1 RES     
   16982 C5        -242.1921  -159.0861   349.7488 C5            1 RES     
   16983 C5        -242.1461  -159.4829   351.2344 C5            1 RES     
   16984 C5        -240.8851  -160.2227   351.7373 C5            1 RES     
   16985 C5        -239.5348  -159.5321   351.4463 C5            1 RES     
   16986 C5        -238.3537  -160.0867   352.2319 C5            1 RES     
   16987 C5        -238.1968  -161.5977   352.0581 C5            1 RES     
   16988 C5        -237.1725  -162.1464   353.0460 C5            1 RES     
   16989 C5        -237.2703  -163.6655   353.0780 C5            1 RES     
   16990 C5        -236.4359  -164.2821   354.1772 C5            1 RES     
   16991 C5        -243.5308  -158.3780   349.3473 C5            1 RES     
   16992 C5        -243.8923  -156.9210   349.8301 C5            1 RES     
   16993 C5        -244.3575  -156.6015   351.2770 C5            1 RES     
   16994 C5        -245.5394  -157.4759   351.7151 C5            1 RES     
   16995 C5        -246.2313  -156.9847   353.0068 C5            1 RES     
   16996 C5        -247.1502  -158.0683   353.6128 C5            1 RES     
   16997 C5        -248.2629  -158.6078   352.6898 C5            1 RES     
   16998 C5        -249.3684  -157.5989   352.3265 C5            1 RES     
   16999 C5        -250.1760  -157.0611   353.5243 C5            1 RES     
   17000 C5        -250.8962  -158.1575   354.3144 C5            1 RES     
   17001 H6        -239.1507  -144.9572   356.8303 H6            1 RES     
   17002 H6        -240.7654  -144.3944   356.2592 H6            1 RES     
   17003 H6        -240.6003  -145.2416   357.8311 H6            1 RES     
   17004 H6        -239.9023  -147.3347   356.7151 H6            1 RES     
   17005 H6        -241.5371  -146.8342   356.1280 H6            1 RES     
   17006 H6        -240.4851  -145.9322   354.0013 H6            1 RES     
   17007 H6        -238.8829  -146.2775   354.6974 H6            1 RES     
   17008 H6        -239.2535  -148.7416   354.6331 H6            1 RES     
   17009 H6        -239.1785  -147.9445   353.0209 H6            1 RES     
   17010 H6        -241.6219  -148.2393   352.6782 H6            1 RES     
   17011 H6        -241.7546  -148.8708   354.3234 H6            1 RES     
   17012 H6        -242.1499  -150.7126   352.8985 H6            1 RES     
   17013 H6        -240.6087  -151.0419   353.7419 H6            1 RES     
   17014 H6        -241.0449  -150.3646   350.7870 H6            1 RES     
   17015 H6        -239.4432  -150.7794   351.3802 H6            1 RES     
   17016 H6        -240.6636  -152.3439   349.6728 H6            1 RES     
   17017 H6        -241.8671  -152.7784   350.8848 H6            1 RES     
   17018 H6        -238.9201  -153.8860   350.6632 H6            1 RES     
   17019 H6        -240.0925  -154.2777   351.9366 H6            1 RES     
   17020 H6        -241.2153  -156.0506   350.5111 H6            1 RES     
   17021 H6        -239.5788  -156.3445   351.0430 H6            1 RES     
   17022 H6        -238.6624  -156.8252   348.9878 H6            1 RES     
   17023 H6        -239.3330  -155.9457   346.7637 H6            1 RES     
   17024 H6        -238.9824  -154.9070   348.1339 H6            1 RES     
   17025 H6        -241.4725  -154.4144   348.5272 H6            1 RES     
   17026 H6        -241.7315  -155.2238   346.9516 H6            1 RES     
   17027 H6        -240.0972  -153.3910   345.9751 H6            1 RES     
   17028 H6        -240.0495  -152.6308   347.5473 H6            1 RES     
   17029 H6        -241.6385  -151.4616   345.9835 H6            1 RES     
   17030 H6        -242.4485  -152.0161   347.4715 H6            1 RES     
   17031 H6        -243.4176  -153.9170   346.3751 H6            1 RES     
   17032 H6        -243.9184  -152.4792   345.5028 H6            1 RES     
   17033 H6        -241.3919  -153.8093   344.3899 H6            1 RES     
   17034 H6        -242.8312  -154.8287   344.4181 H6            1 RES     
   17035 H6        -244.1008  -153.3013   343.0343 H6            1 RES     
   17036 H6        -242.5343  -153.7585   342.2738 H6            1 RES     
   17037 H6        -241.5623  -151.5359   342.9469 H6            1 RES     
   17038 H6        -243.0137  -151.3947   341.8835 H6            1 RES     
   17039 H6        -243.1717  -151.0712   343.6462 H6            1 RES     
   17040 H6        -238.6053  -158.9401   348.4941 H6            1 RES     
   17041 H6        -239.6475  -158.6212   347.1997 H6            1 RES     
   17042 H6        -242.2449  -160.0704   347.7457 H6            1 RES     
   17043 H6        -242.3438  -161.2294   349.1165 H6            1 RES     
   17044 H6        -241.4916  -158.2783   349.6481 H6            1 RES     
   17045 H6        -242.2552  -158.5614   351.8332 H6            1 RES     
   17046 H6        -243.0120  -160.1373   351.4491 H6            1 RES     
   17047 H6        -241.0050  -160.3202   352.8363 H6            1 RES     
   17048 H6        -240.8805  -161.2404   351.2936 H6            1 RES     
   17049 H6        -239.2631  -159.6994   350.4227 H6            1 RES     
   17050 H6        -239.6019  -158.4503   351.6442 H6            1 RES     
   17051 H6        -237.4177  -159.5779   351.9035 H6            1 RES     
   17052 H6        -238.5335  -159.8466   353.2984 H6            1 RES     
   17053 H6        -239.1620  -162.0748   352.3126 H6            1 RES     
   17054 H6        -237.9363  -161.8643   351.0081 H6            1 RES     
   17055 H6        -236.1454  -161.8124   352.7794 H6            1 RES     
   17056 H6        -237.4309  -161.7693   354.0576 H6            1 RES     
   17057 H6        -236.9088  -164.0488   352.1144 H6            1 RES     
   17058 H6        -238.3309  -163.9644   353.2555 H6            1 RES     
   17059 H6        -235.3638  -164.0683   353.9982 H6            1 RES     
   17060 H6        -236.6027  -165.3806   354.1733 H6            1 RES     
   17061 H6        -236.7526  -163.8753   355.1603 H6            1 RES     
   17062 H6        -244.3840  -159.0618   349.5044 H6            1 RES     
   17063 H6        -243.4266  -158.2183   348.2501 H6            1 RES     
   17064 H6        -243.0887  -156.2126   349.5534 H6            1 RES     
   17065 H6        -244.7527  -156.6150   349.1961 H6            1 RES     
   17066 H6        -243.5320  -156.6769   352.0152 H6            1 RES     
   17067 H6        -244.6877  -155.5344   351.2781 H6            1 RES     
   17068 H6        -245.1362  -158.4977   351.8670 H6            1 RES     
   17069 H6        -246.3060  -157.4925   350.9116 H6            1 RES     
   17070 H6        -246.7986  -156.0464   352.8070 H6            1 RES     
   17071 H6        -245.4654  -156.7526   353.7786 H6            1 RES     
   17072 H6        -247.5928  -157.6988   354.5620 H6            1 RES     
   17073 H6        -246.4991  -158.9290   353.8777 H6            1 RES     
   17074 H6        -248.7301  -159.4846   353.1828 H6            1 RES     
   17075 H6        -247.8087  -158.9946   351.7544 H6            1 RES     
   17076 H6        -248.9214  -156.7422   351.7796 H6            1 RES     
   17077 H6        -250.0763  -158.1052   351.6331 H6            1 RES     
   17078 H6        -249.5178  -156.4867   354.2079 H6            1 RES     
   17079 H6        -250.9456  -156.3618   353.1309 H6            1 RES     
   17080 H6        -251.5771  -158.7323   353.6509 H6            1 RES     
   17081 H6        -250.1725  -158.8513   354.7891 H6            1 RES     
   17082 H6        -251.4983  -157.6952   355.1247 H6            1 RES     
   17083 C0        -239.0205  -176.2285   346.7763 C0            1 RES     
   17084 C0        -238.9374  -175.4793   348.4654 C0            1 RES     
   17085 C0        -240.2260  -175.3812   348.9749 C0            1 RES     
   17086 S1        -240.4052  -174.4290   350.3937 S1            1 RES     
   17087 C0        -238.8586  -173.9039   350.6893 C0            1 RES     
   17088 C0        -238.1108  -174.6086   349.5214 C0            1 RES     
   17089 C0        -241.2463  -175.5803   347.9449 C0            1 RES     
   17090 C0        -240.3078  -175.3515   346.7713 C0            1 RES     
   17091 C0        -240.3506  -174.0570   346.3535 C0            1 RES     
   17092 C0        -241.3356  -173.2693   346.9444 C0            1 RES     
   17093 S1        -242.3949  -174.1504   348.0588 S1            1 RES     
   17094 H2        -237.0626  -174.3618   349.4028 H2            1 RES     
   17095 H2        -239.5693  -173.5937   345.7735 H2            1 RES     
   17096 N3        -240.0795  -171.3819   353.5358 N3            1 RES     
   17097 C0        -239.9748  -172.2286   352.5001 C0            1 RES     
   17098 C0        -238.7287  -172.8333   351.9964 C0            1 RES     
   17099 C0        -237.6115  -172.3334   352.8248 C0            1 RES     
   17100 N3        -236.2925  -172.6663   352.6562 N3            1 RES     
   17101 S1        -235.5175  -171.8426   353.8793 S1            1 RES     
   17102 N3        -236.7357  -171.0301   354.6447 N3            1 RES     
   17103 C0        -237.8124  -171.4091   353.9433 C0            1 RES     
   17104 C0        -239.0480  -170.9267   354.2990 C0            1 RES     
   17105 H4        -240.9116  -172.4370   352.0330 H4            1 RES     
   17106 C5        -244.5469  -190.4253   334.7711 C5            1 RES     
   17107 C5        -244.0434  -189.4560   335.8781 C5            1 RES     
   17108 C5        -242.8844  -188.5140   335.4138 C5            1 RES     
   17109 C5        -242.4898  -187.2682   336.3469 C5            1 RES     
   17110 C5        -241.6888  -187.4726   337.7044 C5            1 RES     
   17111 C5        -241.4694  -186.2592   338.8254 C5            1 RES     
   17112 C5        -240.4260  -184.9790   338.7490 C5            1 RES     
   17113 C5        -239.8892  -183.8982   340.0233 C5            1 RES     
   17114 C5        -240.4921  -182.4431   340.6784 C5            1 RES     
   17115 C5        -240.1468  -181.2879   342.0164 C5            1 RES     
   17116 C5        -239.1312  -179.8617   342.3469 C5            1 RES     
   17117 C5        -237.9446  -180.2083   341.2766 C5            1 RES     
   17118 C5        -237.1803  -181.6094   341.3195 C5            1 RES     
   17119 C5        -236.4609  -182.0505   339.9718 C5            1 RES     
   17120 C5        -235.5566  -183.3390   340.0618 C5            1 RES     
   17121 C5        -234.5234  -183.3022   341.2091 C5            1 RES     
   17122 C5        -233.6148  -182.0490   341.2047 C5            1 RES     
   17123 C5        -232.1296  -182.2914   340.9112 C5            1 RES     
   17124 C5        -231.8412  -182.9121   339.5487 C5            1 RES     
   17125 C5        -238.9432  -178.4093   343.6720 C5            1 RES     
   17126 C0        -239.1375  -177.7754   345.5138 C0            1 RES     
   17127 C5        -238.8225  -179.0753   346.2975 C5            1 RES     
   17128 C5        -239.4376  -180.4352   345.7078 C5            1 RES     
   17129 C5        -240.8839  -180.6963   346.1621 C5            1 RES     
   17130 C5        -241.9066  -179.5508   345.9824 C5            1 RES     
   17131 C5        -242.0148  -178.9578   344.5606 C5            1 RES     
   17132 C5        -243.2424  -178.0873   344.3256 C5            1 RES     
   17133 C5        -243.3636  -176.9619   345.3536 C5            1 RES     
   17134 C5        -244.7211  -176.2763   345.2388 C5            1 RES     
   17135 C5        -244.9429  -175.3952   346.4606 C5            1 RES     
   17136 C5        -246.3458  -174.8372   346.5321 C5            1 RES     
   17137 C5        -238.4855  -181.6508   345.9736 C5            1 RES     
   17138 C5        -238.5847  -182.9949   345.1549 C5            1 RES     
   17139 C5        -239.7067  -184.0437   345.3855 C5            1 RES     
   17140 C5        -239.8216  -184.4594   346.8578 C5            1 RES     
   17141 C5        -240.6941  -185.7149   347.0833 C5            1 RES     
   17142 C5        -241.0886  -185.8800   348.5676 C5            1 RES     
   17143 C5        -239.9221  -185.9623   349.5744 C5            1 RES     
   17144 C5        -239.0432  -187.2224   349.4673 C5            1 RES     
   17145 C5        -239.7811  -188.5522   349.7198 C5            1 RES     
   17146 C5        -240.4179  -188.6407   351.1096 C5            1 RES     
   17147 H6        -244.9409  -189.8714   333.8886 H6            1 RES     
   17148 H6        -243.7560  -191.1219   334.4201 H6            1 RES     
   17149 H6        -245.3916  -191.0485   335.1515 H6            1 RES     
   17150 H6        -244.9228  -188.8411   336.1620 H6            1 RES     
   17151 H6        -243.7253  -190.0600   336.7518 H6            1 RES     
   17152 H6        -242.0021  -189.1333   335.1347 H6            1 RES     
   17153 H6        -243.2654  -188.0744   334.4611 H6            1 RES     
   17154 H6        -243.4426  -186.7475   336.5637 H6            1 RES     
   17155 H6        -241.8626  -186.6104   335.7123 H6            1 RES     
   17156 H6        -240.7220  -187.9691   337.4524 H6            1 RES     
   17157 H6        -242.2873  -188.2622   338.2187 H6            1 RES     
   17158 H6        -241.1073  -186.8480   339.6972 H6            1 RES     
   17159 H6        -242.4824  -185.8948   339.0684 H6            1 RES     
   17160 H6        -239.4997  -185.5405   338.4697 H6            1 RES     
   17161 H6        -240.6783  -184.4005   337.8366 H6            1 RES     
   17162 H6        -238.9030  -183.6221   339.5957 H6            1 RES     
   17163 H6        -239.6585  -184.6134   340.8418 H6            1 RES     
   17164 H6        -240.6669  -181.8182   339.7784 H6            1 RES     
   17165 H6        -241.4838  -182.8377   340.9795 H6            1 RES     
   17166 H6        -240.0344  -181.9639   342.8695 H6            1 RES     
   17167 H6        -241.1507  -180.8542   342.1148 H6            1 RES     
   17168 H6        -239.6519  -179.1727   341.6446 H6            1 RES     
   17169 H6        -237.2300  -179.3736   341.1310 H6            1 RES     
   17170 H6        -238.4636  -180.2911   340.2851 H6            1 RES     
   17171 H6        -237.8679  -182.4481   341.5462 H6            1 RES     
   17172 H6        -236.4431  -181.5378   342.1341 H6            1 RES     
   17173 H6        -235.8490  -181.2216   339.5787 H6            1 RES     
   17174 H6        -237.2029  -182.2441   339.1624 H6            1 RES     
   17175 H6        -235.0205  -183.4971   339.0948 H6            1 RES     
   17176 H6        -236.1886  -184.2445   340.2151 H6            1 RES     
   17177 H6        -235.1165  -183.3051   342.1446 H6            1 RES     
   17178 H6        -233.9189  -184.2369   341.2635 H6            1 RES     
   17179 H6        -233.9887  -181.2627   340.5282 H6            1 RES     
   17180 H6        -233.6556  -181.6128   342.2247 H6            1 RES     
   17181 H6        -231.6992  -182.9396   341.7030 H6            1 RES     
   17182 H6        -231.6226  -181.3020   340.9590 H6            1 RES     
   17183 H6        -232.2570  -182.2878   338.7311 H6            1 RES     
   17184 H6        -230.7388  -182.9803   339.4189 H6            1 RES     
   17185 H6        -232.2608  -183.9371   339.4893 H6            1 RES     
   17186 H6        -239.5327  -177.6171   343.1565 H6            1 RES     
   17187 H6        -237.9204  -178.0577   343.4200 H6            1 RES     
   17188 H6        -237.7176  -179.1171   346.2451 H6            1 RES     
   17189 H6        -239.1206  -178.9537   347.3574 H6            1 RES     
   17190 H6        -239.4728  -180.4299   344.6345 H6            1 RES     
   17191 H6        -241.2599  -181.5720   345.6041 H6            1 RES     
   17192 H6        -240.8721  -180.9533   347.2382 H6            1 RES     
   17193 H6        -242.8927  -179.9730   346.2675 H6            1 RES     
   17194 H6        -241.6510  -178.7425   346.6993 H6            1 RES     
   17195 H6        -241.1920  -178.2922   344.3894 H6            1 RES     
   17196 H6        -242.0119  -179.7594   343.8048 H6            1 RES     
   17197 H6        -243.1959  -177.6489   343.3016 H6            1 RES     
   17198 H6        -244.1266  -178.7518   344.3881 H6            1 RES     
   17199 H6        -243.3267  -177.4133   346.3630 H6            1 RES     
   17200 H6        -242.5272  -176.2316   345.2618 H6            1 RES     
   17201 H6        -244.7903  -175.6878   344.2973 H6            1 RES     
   17202 H6        -245.5063  -177.0610   345.2405 H6            1 RES     
   17203 H6        -244.2396  -174.5536   346.4037 H6            1 RES     
   17204 H6        -244.7745  -175.9962   347.3858 H6            1 RES     
   17205 H6        -246.5297  -174.1739   345.6640 H6            1 RES     
   17206 H6        -246.4471  -174.2557   347.4735 H6            1 RES     
   17207 H6        -247.0795  -175.6700   346.5449 H6            1 RES     
   17208 H6        -238.4294  -181.8595   347.0569 H6            1 RES     
   17209 H6        -237.4863  -181.2794   345.6514 H6            1 RES     
   17210 H6        -238.5091  -182.7920   344.0699 H6            1 RES     
   17211 H6        -237.6482  -183.5446   345.3931 H6            1 RES     
   17212 H6        -240.6924  -183.7017   345.0069 H6            1 RES     
   17213 H6        -239.4308  -184.9440   344.7845 H6            1 RES     
   17214 H6        -240.2577  -183.5938   347.3966 H6            1 RES     
   17215 H6        -238.8102  -184.6791   347.2609 H6            1 RES     
   17216 H6        -240.1679  -186.6224   346.7069 H6            1 RES     
   17217 H6        -241.6437  -185.6202   346.5129 H6            1 RES     
   17218 H6        -241.7518  -186.7630   348.6849 H6            1 RES     
   17219 H6        -241.6931  -184.9880   348.8396 H6            1 RES     
   17220 H6        -240.3420  -185.9079   350.5994 H6            1 RES     
   17221 H6        -239.2783  -185.0655   349.4645 H6            1 RES     
   17222 H6        -238.5694  -187.2581   348.4638 H6            1 RES     
   17223 H6        -238.2275  -187.1330   350.2189 H6            1 RES     
   17224 H6        -240.5598  -188.7151   348.9469 H6            1 RES     
   17225 H6        -239.0401  -189.3762   349.6303 H6            1 RES     
   17226 H6        -239.6497  -188.5003   351.8997 H6            1 RES     
   17227 H6        -241.2168  -187.8812   351.2339 H6            1 RES     
   17228 H6        -240.8825  -189.6405   351.2409 H6            1 RES     
   17229 C0        -240.3839  -166.3508   356.3609 C0            1 RES     
   17230 C0        -241.8600  -167.3848   355.9448 C0            1 RES     
   17231 C0        -241.8575  -168.5139   356.7541 C0            1 RES     
   17232 S1        -242.9606  -169.7567   356.3177 S1            1 RES     
   17233 C0        -243.7045  -169.1393   354.9684 C0            1 RES     
   17234 C0        -242.9981  -167.7560   354.8848 C0            1 RES     
   17235 C0        -240.5742  -168.7090   357.4300 C0            1 RES     
   17236 C0        -239.7907  -167.7829   356.5140 C0            1 RES     
   17237 C0        -239.1966  -168.4772   355.5056 C0            1 RES     
   17238 C0        -239.2740  -169.8642   355.6067 C0            1 RES     
   17239 S1        -240.0574  -170.4390   357.0886 S1            1 RES     
   17240 H2        -243.2242  -167.1520   354.0142 H2            1 RES     
   17241 H2        -238.8698  -168.0239   354.5841 H2            1 RES     
   17242 N3        -245.5201  -172.6078   354.1768 N3            1 RES     
   17243 C0        -244.7283  -171.6227   354.6274 C0            1 RES     
   17244 C0        -244.7967  -170.2048   354.2312 C0            1 RES     
   17245 C0        -245.8834  -170.0598   353.2401 C0            1 RES     
   17246 N3        -246.2463  -168.8863   352.6317 N3            1 RES     
   17247 S1        -247.5273  -169.3241   351.6607 S1            1 RES     
   17248 N3        -247.6792  -170.9499   351.9131 N3            1 RES     
   17249 C0        -246.7059  -171.1900   352.8020 C0            1 RES     
   17250 C0        -246.5229  -172.4694   353.2664 C0            1 RES     
   17251 H4        -243.9955  -171.9606   355.3260 H4            1 RES     
   17252 C5        -229.4645  -156.7702   369.2137 C5            1 RES     
   17253 C5        -230.5200  -157.4431   368.2908 C5            1 RES     
   17254 C5        -230.3627  -157.0763   366.7786 C5            1 RES     
   17255 C5        -231.1777  -157.9347   365.6936 C5            1 RES     
   17256 C5        -232.7455  -157.7543   365.5045 C5            1 RES     
   17257 C5        -233.6764  -158.7808   364.5789 C5            1 RES     
   17258 C5        -233.7855  -158.8485   362.9305 C5            1 RES     
   17259 C5        -234.9905  -159.6302   361.9222 C5            1 RES     
   17260 C5        -235.1632  -161.2011   361.2799 C5            1 RES     
   17261 C5        -236.3478  -162.1841   360.3449 C5            1 RES     
   17262 C5        -236.8006  -162.5117   358.6530 C5            1 RES     
   17263 C5        -236.2865  -161.0904   358.0292 C5            1 RES     
   17264 C5        -236.8071  -159.6985   358.6128 C5            1 RES     
   17265 C5        -235.8853  -158.4354   358.3247 C5            1 RES     
   17266 C5        -236.4823  -157.0362   358.7393 C5            1 RES     
   17267 C5        -237.9025  -156.7726   358.1930 C5            1 RES     
   17268 C5        -238.0341  -156.9416   356.6599 C5            1 RES     
   17269 C5        -238.3273  -155.6661   355.8615 C5            1 RES     
   17270 C5        -237.2655  -154.5786   355.9830 C5            1 RES     
   17271 C5        -237.8731  -163.7853   357.5905 C5            1 RES     
   17272 C0        -239.4086  -164.9919   357.4576 C0            1 RES     
   17273 C5        -240.4380  -164.2419   358.3414 C5            1 RES     
   17274 C5        -239.8785  -163.5876   359.6958 C5            1 RES     
   17275 C5        -239.8227  -164.5774   360.8722 C5            1 RES     
   17276 C5        -239.1222  -165.9344   360.6309 C5            1 RES     
   17277 C5        -237.6833  -165.8632   360.0748 C5            1 RES     
   17278 C5        -236.9000  -167.1663   360.1666 C5            1 RES     
   17279 C5        -237.6373  -168.3359   359.5137 C5            1 RES     
   17280 C5        -236.9464  -169.6550   359.8437 C5            1 RES     
   17281 C5        -237.8633  -170.8100   359.4643 C5            1 RES     
   17282 C5        -237.3472  -172.1476   359.9431 C5            1 RES     
   17283 C5        -240.6438  -162.2660   360.0460 C5            1 RES     
   17284 C5        -240.0540  -161.1854   361.0314 C5            1 RES     
   17285 C5        -240.0248  -161.3740   362.5727 C5            1 RES     
   17286 C5        -241.4045  -161.7282   363.1423 C5            1 RES     
   17287 C5        -241.4902  -161.6139   364.6811 C5            1 RES     
   17288 C5        -242.7442  -162.3219   365.2399 C5            1 RES     
   17289 C5        -244.1000  -161.8407   364.6819 C5            1 RES     
   17290 C5        -244.5019  -160.4047   365.0670 C5            1 RES     
   17291 C5        -244.6713  -160.1613   366.5798 C5            1 RES     
   17292 C5        -245.7405  -161.0488   367.2231 C5            1 RES     
   17293 H6        -228.4274  -157.0668   368.9356 H6            1 RES     
   17294 H6        -229.5258  -155.6612   369.1963 H6            1 RES     
   17295 H6        -229.6084  -157.0929   370.2728 H6            1 RES     
   17296 H6        -230.3775  -158.5365   368.4185 H6            1 RES     
   17297 H6        -231.5295  -157.1635   368.6544 H6            1 RES     
   17298 H6        -230.5113  -155.9799   366.6530 H6            1 RES     
   17299 H6        -229.2826  -157.2661   366.5706 H6            1 RES     
   17300 H6        -230.9614  -158.9942   365.9316 H6            1 RES     
   17301 H6        -230.7168  -157.6896   364.7157 H6            1 RES     
   17302 H6        -232.9308  -156.6878   365.2350 H6            1 RES     
   17303 H6        -233.1254  -157.8526   366.5497 H6            1 RES     
   17304 H6        -234.6976  -158.4801   364.9026 H6            1 RES     
   17305 H6        -233.4862  -159.7923   364.9773 H6            1 RES     
   17306 H6        -233.9409  -157.7585   362.7329 H6            1 RES     
   17307 H6        -232.7675  -159.0529   362.5398 H6            1 RES     
   17308 H6        -234.9052  -158.9743   361.0311 H6            1 RES     
   17309 H6        -235.9346  -159.3200   362.4193 H6            1 RES     
   17310 H6        -234.1773  -161.3863   360.8060 H6            1 RES     
   17311 H6        -235.1476  -161.7398   362.2492 H6            1 RES     
   17312 H6        -237.2760  -161.9921   360.8918 H6            1 RES     
   17313 H6        -236.0170  -163.1803   360.6671 H6            1 RES     
   17314 H6        -235.8646  -163.0462   358.3750 H6            1 RES     
   17315 H6        -236.2815  -161.0760   356.9208 H6            1 RES     
   17316 H6        -235.1996  -161.0304   358.3017 H6            1 RES     
   17317 H6        -236.8973  -159.7215   359.7169 H6            1 RES     
   17318 H6        -237.8101  -159.5377   358.1880 H6            1 RES     
   17319 H6        -235.6161  -158.3971   357.2560 H6            1 RES     
   17320 H6        -234.9036  -158.5243   358.8460 H6            1 RES     
   17321 H6        -235.8041  -156.2163   358.3994 H6            1 RES     
   17322 H6        -236.5344  -156.9521   359.8497 H6            1 RES     
   17323 H6        -238.5553  -157.5182   358.6878 H6            1 RES     
   17324 H6        -238.3073  -155.7888   358.5252 H6            1 RES     
   17325 H6        -237.1595  -157.4467   356.2174 H6            1 RES     
   17326 H6        -238.8955  -157.6180   356.4790 H6            1 RES     
   17327 H6        -239.3078  -155.2518   356.1770 H6            1 RES     
   17328 H6        -238.4038  -155.9620   354.7915 H6            1 RES     
   17329 H6        -236.2700  -154.9583   355.6732 H6            1 RES     
   17330 H6        -237.5477  -153.7345   355.3162 H6            1 RES     
   17331 H6        -237.2147  -154.1962   357.0229 H6            1 RES     
   17332 H6        -237.0694  -164.5002   357.3007 H6            1 RES     
   17333 H6        -237.9514  -163.2161   356.6401 H6            1 RES     
   17334 H6        -240.7885  -163.4411   357.6624 H6            1 RES     
   17335 H6        -241.2918  -164.9100   358.5687 H6            1 RES     
   17336 H6        -238.8749  -163.2226   359.5830 H6            1 RES     
   17337 H6        -239.3050  -164.0772   361.7097 H6            1 RES     
   17338 H6        -240.8582  -164.8004   361.1917 H6            1 RES     
   17339 H6        -239.0980  -166.4459   361.6156 H6            1 RES     
   17340 H6        -239.7537  -166.5324   359.9408 H6            1 RES     
   17341 H6        -237.7183  -165.6587   359.0230 H6            1 RES     
   17342 H6        -237.1067  -165.0785   360.5902 H6            1 RES     
   17343 H6        -235.9062  -167.0371   359.6782 H6            1 RES     
   17344 H6        -236.7428  -167.3738   361.2434 H6            1 RES     
   17345 H6        -238.6492  -168.3946   359.9570 H6            1 RES     
   17346 H6        -237.7407  -168.1921   358.4137 H6            1 RES     
   17347 H6        -235.9652  -169.7299   359.3249 H6            1 RES     
   17348 H6        -236.7863  -169.6966   360.9413 H6            1 RES     
   17349 H6        -237.9349  -170.8401   358.3688 H6            1 RES     
   17350 H6        -238.8667  -170.6534   359.9273 H6            1 RES     
   17351 H6        -236.3818  -172.3749   359.4496 H6            1 RES     
   17352 H6        -238.0930  -172.9283   359.6806 H6            1 RES     
   17353 H6        -237.2228  -172.1276   361.0459 H6            1 RES     
   17354 H6        -241.6945  -162.4919   360.3015 H6            1 RES     
   17355 H6        -240.6461  -161.6999   359.0870 H6            1 RES     
   17356 H6        -239.0494  -160.8653   360.6961 H6            1 RES     
   17357 H6        -240.6888  -160.2851   360.8815 H6            1 RES     
   17358 H6        -239.2740  -162.1254   362.8947 H6            1 RES     
   17359 H6        -239.7028  -160.3970   363.0081 H6            1 RES     
   17360 H6        -241.6173  -162.7702   362.8279 H6            1 RES     
   17361 H6        -242.1687  -161.0455   362.7139 H6            1 RES     
   17362 H6        -241.4655  -160.5433   364.9898 H6            1 RES     
   17363 H6        -240.6122  -162.1143   365.1447 H6            1 RES     
   17364 H6        -242.7486  -162.2603   366.3487 H6            1 RES     
   17365 H6        -242.6470  -163.3980   364.9800 H6            1 RES     
   17366 H6        -244.8884  -162.5368   365.0337 H6            1 RES     
   17367 H6        -244.0934  -161.9270   363.5759 H6            1 RES     
   17368 H6        -243.7497  -159.6914   364.6693 H6            1 RES     
   17369 H6        -245.4719  -160.1784   364.5708 H6            1 RES     
   17370 H6        -243.7057  -160.3081   367.1056 H6            1 RES     
   17371 H6        -244.9753  -159.1015   366.7231 H6            1 RES     
   17372 H6        -246.7216  -160.9012   366.7233 H6            1 RES     
   17373 H6        -245.4579  -162.1201   367.1701 H6            1 RES     
   17374 H6        -245.8461  -160.7827   368.2960 H6            1 RES     
   17375 C0        -247.2668  -177.0272   350.8898 C0            1 RES     
   17376 C0        -246.5128  -177.2308   352.5665 C0            1 RES     
   17377 C0        -247.4291  -176.8116   353.5227 C0            1 RES     
   17378 S1        -246.8202  -176.6210   355.1179 S1            1 RES     
   17379 C0        -245.2185  -177.0262   354.9575 C0            1 RES     
   17380 C0        -245.1857  -177.3867   353.4447 C0            1 RES     
   17381 C0        -248.5380  -176.0584   352.9357 C0            1 RES     
   17382 C0        -247.8329  -175.7730   351.6197 C0            1 RES     
   17383 C0        -247.2173  -174.5595   351.6456 C0            1 RES     
   17384 C0        -247.4904  -173.7732   352.7623 C0            1 RES     
   17385 S1        -248.6653  -174.4873   353.8804 S1            1 RES     
   17386 H2        -244.2118  -177.6045   353.0230 H2            1 RES     
   17387 H2        -246.4154  -174.2857   350.9797 H2            1 RES     
   17388 N3        -244.3613  -175.7866   358.6564 N3            1 RES     
   17389 C0        -244.9112  -176.0324   357.4575 C0            1 RES     
   17390 C0        -244.3094  -176.8301   356.3741 C0            1 RES     
   17391 C0        -242.9870  -177.3021   356.8354 C0            1 RES     
   17392 N3        -242.1214  -178.0692   356.0997 N3            1 RES     
   17393 S1        -240.8356  -178.3131   357.1306 S1            1 RES     
   17394 N3        -241.2574  -177.4821   358.4949 N3            1 RES     
   17395 C0        -242.4594  -176.9901   358.1658 C0            1 RES     
   17396 C0        -243.1441  -176.2265   359.0791 C0            1 RES     
   17397 H4        -245.8667  -175.5735   357.3327 H4            1 RES     
   17398 C5        -261.5748  -180.3151   338.2137 C5            1 RES     
   17399 C5        -260.4488  -180.2740   339.2855 C5            1 RES     
   17400 C5        -259.0545  -179.8454   338.7212 C5            1 RES     
   17401 C5        -257.8920  -179.4635   339.7610 C5            1 RES     
   17402 C5        -257.1334  -180.5799   340.6002 C5            1 RES     
   17403 C5        -256.1020  -180.2294   341.8612 C5            1 RES     
   17404 C5        -254.5524  -179.6585   341.7805 C5            1 RES     
   17405 C5        -253.3105  -179.6197   343.0200 C5            1 RES     
   17406 C5        -252.8913  -178.5105   344.2463 C5            1 RES     
   17407 C5        -251.7545  -178.3573   345.6349 C5            1 RES     
   17408 C5        -250.0814  -177.8413   345.9657 C5            1 RES     
   17409 C5        -249.4761  -178.1597   344.4805 C5            1 RES     
   17410 C5        -249.6216  -179.6083   343.8252 C5            1 RES     
   17411 C5        -249.4946  -179.6708   342.2414 C5            1 RES     
   17412 C5        -249.4559  -181.1145   341.6085 C5            1 RES     
   17413 C5        -248.4076  -182.0520   342.2466 C5            1 RES     
   17414 C5        -246.9716  -181.4747   342.2715 C5            1 RES     
   17415 C5        -245.9401  -182.1890   341.3905 C5            1 RES     
   17416 C5        -246.2670  -182.1946   339.9012 C5            1 RES     
   17417 C5        -248.9103  -177.3813   347.4881 C5            1 RES     
   17418 C0        -248.4222  -177.6200   349.3686 C0            1 RES     
   17419 C5        -248.7598  -179.1206   349.5626 C5            1 RES     
   17420 C5        -250.1105  -179.6467   348.8740 C5            1 RES     
   17421 C5        -251.3637  -179.4133   349.7352 C5            1 RES     
   17422 C5        -251.5928  -177.9890   350.2913 C5            1 RES     
   17423 C5        -251.5805  -176.8471   349.2516 C5            1 RES     
   17424 C5        -252.1383  -175.5221   349.7547 C5            1 RES     
   17425 C5        -251.4486  -175.0484   351.0345 C5            1 RES     
   17426 C5        -252.1958  -173.8634   351.6377 C5            1 RES     
   17427 C5        -251.6925  -173.6218   353.0543 C5            1 RES     
   17428 C5        -252.5176  -172.5991   353.8013 C5            1 RES     
   17429 C5        -249.9641  -181.1327   348.3995 C5            1 RES     
   17430 C5        -250.9215  -181.7726   347.3221 C5            1 RES     
   17431 C5        -252.3822  -182.1969   347.6356 C5            1 RES     
   17432 C5        -252.4703  -183.1245   348.8543 C5            1 RES     
   17433 C5        -253.8426  -183.8178   349.0103 C5            1 RES     
   17434 C5        -254.0184  -184.4320   350.4167 C5            1 RES     
   17435 C5        -252.9498  -185.4588   350.8468 C5            1 RES     
   17436 C5        -252.9476  -186.7815   350.0579 C5            1 RES     
   17437 C5        -254.2468  -187.6042   350.1659 C5            1 RES     
   17438 C5        -254.5931  -188.0095   351.6014 C5            1 RES     
   17439 H6        -261.7311  -179.3171   337.7440 H6            1 RES     
   17440 H6        -261.3712  -181.0513   337.4071 H6            1 RES     
   17441 H6        -262.5492  -180.5968   338.6805 H6            1 RES     
   17442 H6        -260.7806  -179.5326   340.0420 H6            1 RES     
   17443 H6        -260.3836  -181.2736   339.7609 H6            1 RES     
   17444 H6        -258.7219  -180.5937   337.9666 H6            1 RES     
   17445 H6        -259.2748  -178.9112   338.1514 H6            1 RES     
   17446 H6        -258.3469  -178.7333   340.4580 H6            1 RES     
   17447 H6        -257.1169  -178.9458   339.1610 H6            1 RES     
   17448 H6        -256.6595  -181.2818   339.8741 H6            1 RES     
   17449 H6        -257.9774  -181.1596   341.0450 H6            1 RES     
   17450 H6        -255.9927  -181.2357   342.3231 H6            1 RES     
   17451 H6        -256.6883  -179.6060   342.5580 H6            1 RES     
   17452 H6        -254.1519  -180.3811   341.0263 H6            1 RES     
   17453 H6        -254.5841  -178.6907   341.2391 H6            1 RES     
   17454 H6        -252.4206  -179.6500   342.3576 H6            1 RES     
   17455 H6        -253.3873  -180.6427   343.4468 H6            1 RES     
   17456 H6        -252.8321  -177.5462   343.7006 H6            1 RES     
   17457 H6        -253.8717  -178.5139   344.7647 H6            1 RES     
   17458 H6        -251.9005  -179.3130   346.1475 H6            1 RES     
   17459 H6        -252.3182  -177.6197   346.2211 H6            1 RES     
   17460 H6        -250.2374  -176.7622   345.7414 H6            1 RES     
   17461 H6        -248.4531  -177.7601   344.3307 H6            1 RES     
   17462 H6        -250.1049  -177.5543   343.7752 H6            1 RES     
   17463 H6        -250.6117  -180.0591   344.0352 H6            1 RES     
   17464 H6        -248.8491  -180.2402   344.2903 H6            1 RES     
   17465 H6        -248.5985  -179.1203   341.9098 H6            1 RES     
   17466 H6        -250.3377  -179.1342   341.7469 H6            1 RES     
   17467 H6        -249.2607  -181.0446   340.5109 H6            1 RES     
   17468 H6        -250.4493  -181.6091   341.7136 H6            1 RES     
   17469 H6        -248.7436  -182.2081   343.2905 H6            1 RES     
   17470 H6        -248.4232  -183.0716   341.7970 H6            1 RES     
   17471 H6        -246.9496  -180.3960   342.0439 H6            1 RES     
   17472 H6        -246.5996  -181.5700   343.3130 H6            1 RES     
   17473 H6        -245.8208  -183.2362   341.7391 H6            1 RES     
   17474 H6        -244.9698  -181.6631   341.5334 H6            1 RES     
   17475 H6        -246.3917  -181.1611   339.5174 H6            1 RES     
   17476 H6        -245.4253  -182.6770   339.3575 H6            1 RES     
   17477 H6        -247.1874  -182.7818   339.7052 H6            1 RES     
   17478 H6        -249.0353  -176.2744   347.4841 H6            1 RES     
   17479 H6        -247.9204  -177.4470   346.9889 H6            1 RES     
   17480 H6        -247.8890  -179.6179   349.0939 H6            1 RES     
   17481 H6        -248.7659  -179.3652   350.6430 H6            1 RES     
   17482 H6        -250.3085  -179.1500   347.9427 H6            1 RES     
   17483 H6        -252.2457  -179.6817   349.1271 H6            1 RES     
   17484 H6        -251.3239  -180.0971   350.6041 H6            1 RES     
   17485 H6        -252.5865  -178.0093   350.7854 H6            1 RES     
   17486 H6        -250.8210  -177.7906   351.0643 H6            1 RES     
   17487 H6        -250.5670  -176.6157   348.9897 H6            1 RES     
   17488 H6        -252.1437  -177.1372   348.3502 H6            1 RES     
   17489 H6        -252.0215  -174.7458   348.9630 H6            1 RES     
   17490 H6        -253.2187  -175.6772   349.9440 H6            1 RES     
   17491 H6        -251.5068  -175.8651   351.7785 H6            1 RES     
   17492 H6        -250.3754  -174.8078   350.8564 H6            1 RES     
   17493 H6        -252.0770  -172.9557   351.0056 H6            1 RES     
   17494 H6        -253.2717  -174.1290   351.7015 H6            1 RES     
   17495 H6        -250.6607  -173.2512   352.9889 H6            1 RES     
   17496 H6        -251.7397  -174.5759   353.6316 H6            1 RES     
   17497 H6        -252.4394  -171.6151   353.2983 H6            1 RES     
   17498 H6        -252.1271  -172.5196   354.8385 H6            1 RES     
   17499 H6        -253.5764  -172.9298   353.8417 H6            1 RES     
   17500 H6        -249.8602  -181.8016   349.2725 H6            1 RES     
   17501 H6        -248.9938  -181.1413   347.8531 H6            1 RES     
   17502 H6        -250.9213  -181.1655   346.3971 H6            1 RES     
   17503 H6        -250.4230  -182.7204   347.0237 H6            1 RES     
   17504 H6        -253.0584  -181.3268   347.7679 H6            1 RES     
   17505 H6        -252.7523  -182.7533   346.7404 H6            1 RES     
   17506 H6        -252.2603  -182.4967   349.7440 H6            1 RES     
   17507 H6        -251.7014  -183.9215   348.7698 H6            1 RES     
   17508 H6        -253.9763  -184.5902   348.2180 H6            1 RES     
   17509 H6        -254.6572  -183.0711   348.8879 H6            1 RES     
   17510 H6        -255.0307  -184.8793   350.5084 H6            1 RES     
   17511 H6        -253.9740  -183.5907   351.1415 H6            1 RES     
   17512 H6        -253.0982  -185.6866   351.9220 H6            1 RES     
   17513 H6        -251.9445  -184.9954   350.7729 H6            1 RES     
   17514 H6        -252.7414  -186.5725   348.9871 H6            1 RES     
   17515 H6        -252.1113  -187.4060   350.4435 H6            1 RES     
   17516 H6        -255.0971  -187.0436   349.7263 H6            1 RES     
   17517 H6        -254.1127  -188.5338   349.5712 H6            1 RES     
   17518 H6        -253.7612  -188.5906   352.0534 H6            1 RES     
   17519 H6        -254.8047  -187.1201   352.2295 H6            1 RES     
   17520 H6        -255.5057  -188.6420   351.5976 H6            1 RES     
   17521 C0        -241.3681  -172.9867   362.7293 C0            1 RES     
   17522 C0        -243.2136  -172.9558   362.6086 C0            1 RES     
   17523 C0        -243.7076  -174.1965   362.9910 C0            1 RES     
   17524 S1        -245.3673  -174.4840   362.6530 S1            1 RES     
   17525 C0        -245.8491  -173.0745   361.9204 C0            1 RES     
   17526 C0        -244.5188  -172.2712   361.9885 C0            1 RES     
   17527 C0        -242.6592  -175.2157   363.0532 C0            1 RES     
   17528 C0        -241.6529  -174.4329   362.2255 C0            1 RES     
   17529 C0        -241.7143  -174.7882   360.9133 C0            1 RES     
   17530 C0        -242.5300  -175.8799   360.6259 C0            1 RES     
   17531 S1        -243.2508  -176.6406   362.0550 S1            1 RES     
   17532 H2        -244.5083  -171.3138   361.4817 H2            1 RES     
   17533 H2        -241.3439  -174.1696   360.1123 H2            1 RES     
   17534 N3        -249.3815  -174.6240   360.8836 N3            1 RES     
   17535 C0        -248.1165  -174.4062   361.2745 C0            1 RES     
   17536 C0        -247.4500  -173.0949   361.3650 C0            1 RES     
   17537 C0        -248.4161  -172.0614   360.9374 C0            1 RES     
   17538 N3        -248.1596  -170.7162   360.8789 N3            1 RES     
   17539 S1        -249.6042  -170.0601   360.3708 S1            1 RES     
   17540 N3        -250.5889  -171.3723   360.1746 N3            1 RES     
   17541 C0        -249.7845  -172.3843   360.5265 C0            1 RES     
   17542 C0        -250.2698  -173.6686   360.4940 C0            1 RES     
   17543 H4        -247.5932  -175.3037   361.5194 H4            1 RES     
   17544 C5        -225.0783  -176.0551   372.8011 C5            1 RES     
   17545 C5        -226.4613  -175.7032   372.1831 C5            1 RES     
   17546 C5        -226.3721  -174.8147   370.8992 C5            1 RES     
   17547 C5        -227.6875  -174.6415   369.9947 C5            1 RES     
   17548 C5        -228.8983  -173.7245   370.4630 C5            1 RES     
   17549 C5        -230.3761  -173.7020   369.6930 C5            1 RES     
   17550 C5        -230.7669  -172.9739   368.2610 C5            1 RES     
   17551 C5        -232.3462  -172.6028   367.5914 C5            1 RES     
   17552 C5        -233.4609  -173.4653   366.6305 C5            1 RES     
   17553 C5        -235.1233  -173.2927   365.9591 C5            1 RES     
   17554 C5        -235.9460  -172.5961   364.5404 C5            1 RES     
   17555 C5        -234.8384  -171.4381   364.2150 C5            1 RES     
   17556 C5        -234.3985  -170.3828   365.3293 C5            1 RES     
   17557 C5        -232.9916  -169.6775   365.1022 C5            1 RES     
   17558 C5        -232.6371  -168.5076   366.0981 C5            1 RES     
   17559 C5        -233.7386  -167.4321   366.2210 C5            1 RES     
   17560 C5        -234.1856  -166.8243   364.8693 C5            1 RES     
   17561 C5        -233.8461  -165.3459   364.6472 C5            1 RES     
   17562 C5        -232.3566  -165.0213   364.6777 C5            1 RES     
   17563 C5        -237.6982  -172.6427   363.6302 C5            1 RES     
   17564 C0        -239.6425  -172.8458   363.7307 C0            1 RES     
   17565 C5        -239.9257  -172.1995   365.1110 C5            1 RES     
   17566 C5        -238.8889  -172.5386   366.2881 C5            1 RES     
   17567 C5        -239.2033  -173.8575   367.0149 C5            1 RES     
   17568 C5        -239.4221  -175.1173   366.1457 C5            1 RES     
   17569 C5        -238.2966  -175.4502   365.1421 C5            1 RES     
   17570 C5        -238.3644  -176.8524   364.5514 C5            1 RES     
   17571 C5        -239.7197  -177.1482   363.9080 C5            1 RES     
   17572 C5        -239.8336  -178.6280   363.5569 C5            1 RES     
   17573 C5        -241.2834  -178.9546   363.2256 C5            1 RES     
   17574 C5        -241.5266  -180.4378   363.0651 C5            1 RES     
   17575 C5        -238.7253  -171.3263   367.2670 C5            1 RES     
   17576 C5        -237.4865  -171.1826   368.2322 C5            1 RES     
   17577 C5        -237.3201  -172.0275   369.5246 C5            1 RES     
   17578 C5        -238.5519  -171.9473   370.4355 C5            1 RES     
   17579 C5        -238.3117  -172.5044   371.8569 C5            1 RES     
   17580 C5        -239.6387  -172.7507   372.6082 C5            1 RES     
   17581 C5        -240.5688  -171.5288   372.7605 C5            1 RES     
   17582 C5        -240.0393  -170.4033   373.6687 C5            1 RES     
   17583 C5        -239.8002  -170.8111   375.1360 C5            1 RES     
   17584 C5        -241.0622  -171.3165   375.8407 C5            1 RES     
   17585 H6        -224.4402  -176.6207   372.0843 H6            1 RES     
   17586 H6        -224.5164  -175.1560   373.1326 H6            1 RES     
   17587 H6        -225.2049  -176.7138   373.6937 H6            1 RES     
   17588 H6        -226.9305  -176.6750   371.9233 H6            1 RES     
   17589 H6        -227.0725  -175.2010   372.9601 H6            1 RES     
   17590 H6        -225.9059  -173.8387   371.1639 H6            1 RES     
   17591 H6        -225.6284  -175.3472   370.2593 H6            1 RES     
   17592 H6        -228.0599  -175.6686   369.8146 H6            1 RES     
   17593 H6        -227.3320  -174.2194   369.0334 H6            1 RES     
   17594 H6        -228.5017  -172.6917   370.6058 H6            1 RES     
   17595 H6        -229.0954  -174.0978   371.4964 H6            1 RES     
   17596 H6        -230.9915  -173.1605   370.4453 H6            1 RES     
   17597 H6        -230.7174  -174.7513   369.6780 H6            1 RES     
   17598 H6        -230.3214  -171.9679   368.4630 H6            1 RES     
   17599 H6        -230.1115  -173.4091   367.4788 H6            1 RES     
   17600 H6        -232.0558  -171.7332   366.9660 H6            1 RES     
   17601 H6        -232.8656  -172.1650   368.4707 H6            1 RES     
   17602 H6        -232.8344  -173.8345   365.7925 H6            1 RES     
   17603 H6        -233.5913  -174.3228   367.3216 H6            1 RES     
   17604 H6        -235.6872  -172.9762   366.8419 H6            1 RES     
   17605 H6        -235.3536  -174.3583   365.8292 H6            1 RES     
   17606 H6        -235.5223  -173.3024   363.7917 H6            1 RES     
   17607 H6        -235.0040  -170.9365   363.2405 H6            1 RES     
   17608 H6        -233.8737  -171.9925   364.0691 H6            1 RES     
   17609 H6        -234.3077  -170.8516   366.3292 H6            1 RES     
   17610 H6        -235.1966  -169.6257   365.3744 H6            1 RES     
   17611 H6        -232.9219  -169.2915   364.0715 H6            1 RES     
   17612 H6        -232.1555  -170.4120   365.1710 H6            1 RES     
   17613 H6        -231.6833  -168.0171   365.7862 H6            1 RES     
   17614 H6        -232.4550  -168.9126   367.1206 H6            1 RES     
   17615 H6        -234.6057  -167.9448   366.6816 H6            1 RES     
   17616 H6        -233.4706  -166.6342   366.9515 H6            1 RES     
   17617 H6        -233.8222  -167.4075   364.0070 H6            1 RES     
   17618 H6        -235.2931  -166.8906   364.8321 H6            1 RES     
   17619 H6        -234.3667  -164.7302   365.4104 H6            1 RES     
   17620 H6        -234.2442  -165.0672   363.6461 H6            1 RES     
   17621 H6        -231.8037  -165.6192   363.9240 H6            1 RES     
   17622 H6        -232.2261  -163.9424   364.4414 H6            1 RES     
   17623 H6        -231.9364  -165.2078   365.6871 H6            1 RES     
   17624 H6        -237.4846  -173.4260   362.8675 H6            1 RES     
   17625 H6        -237.5992  -171.7421   362.9880 H6            1 RES     
   17626 H6        -239.8770  -171.1188   364.8768 H6            1 RES     
   17627 H6        -240.9570  -172.4441   365.4332 H6            1 RES     
   17628 H6        -237.8850  -172.6473   365.9226 H6            1 RES     
   17629 H6        -238.3689  -174.0685   367.7070 H6            1 RES     
   17630 H6        -240.1214  -173.7160   367.6160 H6            1 RES     
   17631 H6        -239.5279  -175.9643   366.8551 H6            1 RES     
   17632 H6        -240.3800  -174.9977   365.5973 H6            1 RES     
   17633 H6        -238.3805  -174.8078   364.2878 H6            1 RES     
   17634 H6        -237.3080  -175.3223   365.6115 H6            1 RES     
   17635 H6        -237.5595  -176.9736   363.7896 H6            1 RES     
   17636 H6        -238.1783  -177.5622   365.3814 H6            1 RES     
   17637 H6        -240.5075  -176.9440   364.6573 H6            1 RES     
   17638 H6        -239.9008  -176.5015   363.0190 H6            1 RES     
   17639 H6        -239.1569  -178.8892   362.7134 H6            1 RES     
   17640 H6        -239.5498  -179.2190   364.4526 H6            1 RES     
   17641 H6        -241.5344  -178.4595   362.2779 H6            1 RES     
   17642 H6        -241.9419  -178.5952   364.0520 H6            1 RES     
   17643 H6        -240.9433  -180.8220   362.2053 H6            1 RES     
   17644 H6        -242.6105  -180.6003   362.8826 H6            1 RES     
   17645 H6        -241.2370  -180.9674   363.9967 H6            1 RES     
   17646 H6        -239.6676  -171.1519   367.8164 H6            1 RES     
   17647 H6        -238.5672  -170.4578   366.5881 H6            1 RES     
   17648 H6        -236.5424  -171.2277   367.6572 H6            1 RES     
   17649 H6        -237.5300  -170.1339   368.5989 H6            1 RES     
   17650 H6        -237.0717  -173.0878   369.3101 H6            1 RES     
   17651 H6        -236.4457  -171.6017   370.0743 H6            1 RES     
   17652 H6        -239.3536  -172.5257   369.9330 H6            1 RES     
   17653 H6        -238.8663  -170.8873   370.5412 H6            1 RES     
   17654 H6        -237.6486  -171.8181   372.4327 H6            1 RES     
   17655 H6        -237.7977  -173.4882   371.7933 H6            1 RES     
   17656 H6        -239.4304  -173.1935   373.6050 H6            1 RES     
   17657 H6        -240.1975  -173.5168   372.0287 H6            1 RES     
   17658 H6        -241.5422  -171.8795   373.1600 H6            1 RES     
   17659 H6        -240.7886  -171.1074   371.7581 H6            1 RES     
   17660 H6        -239.0934  -170.0029   373.2472 H6            1 RES     
   17661 H6        -240.7857  -169.5781   373.6577 H6            1 RES     
   17662 H6        -239.0086  -171.5857   375.1979 H6            1 RES     
   17663 H6        -239.4380  -169.9147   375.6848 H6            1 RES     
   17664 H6        -241.8618  -170.5460   375.8076 H6            1 RES     
   17665 H6        -241.4337  -172.2527   375.3760 H6            1 RES     
   17666 H6        -240.8288  -171.5394   376.9032 H6            1 RES     
   17667 C0        -253.7848  -175.8360   357.3441 C0            1 RES     
   17668 C0        -253.0129  -177.0728   358.4824 C0            1 RES     
   17669 C0        -253.3756  -176.7665   359.7878 C0            1 RES     
   17670 S1        -252.5168  -177.5958   361.0233 S1            1 RES     
   17671 C0        -251.4590  -178.5477   360.1688 C0            1 RES     
   17672 C0        -251.8746  -178.1708   358.7179 C0            1 RES     
   17673 C0        -253.9579  -175.4288   359.9023 C0            1 RES     
   17674 C0        -253.4348  -174.9328   358.5640 C0            1 RES     
   17675 C0        -252.2554  -174.2705   358.7128 C0            1 RES     
   17676 C0        -251.8635  -174.0334   360.0281 C0            1 RES     
   17677 S1        -253.0396  -174.5680   361.2411 S1            1 RES     
   17678 H2        -251.2676  -178.5832   357.9210 H2            1 RES     
   17679 H2        -251.5555  -174.1153   357.9081 H2            1 RES     
   17680 N3        -249.4786  -179.6042   363.4725 N3            1 RES     
   17681 C0        -250.2563  -179.0201   362.5482 C0            1 RES     
   17682 C0        -250.3807  -179.4260   361.1369 C0            1 RES     
   17683 C0        -249.4883  -180.5830   360.9145 C0            1 RES     
   17684 N3        -249.3244  -181.2361   359.7205 N3            1 RES     
   17685 S1        -248.2442  -182.4523   360.0803 S1            1 RES     
   17686 N3        -247.9093  -182.2246   361.6822 N3            1 RES     
   17687 C0        -248.6711  -181.1641   361.9822 C0            1 RES     
   17688 C0        -248.6606  -180.6725   363.2645 C0            1 RES     
   17689 H4        -250.8023  -178.1849   362.9272 H4            1 RES     
   17690 C5        -269.3259  -166.4452   350.5248 C5            1 RES     
   17691 C5        -268.2116  -167.3869   351.0633 C5            1 RES     
   17692 C5        -266.9258  -167.4178   350.1734 C5            1 RES     
   17693 C5        -265.5979  -168.0957   350.7697 C5            1 RES     
   17694 C5        -265.4626  -169.6739   350.9015 C5            1 RES     
   17695 C5        -264.2236  -170.4167   351.7322 C5            1 RES     
   17696 C5        -262.6545  -170.6203   351.2524 C5            1 RES     
   17697 C5        -261.4200  -171.6894   351.8950 C5            1 RES     
   17698 C5        -260.2661  -171.5551   353.1443 C5            1 RES     
   17699 C5        -259.0300  -172.5550   353.9906 C5            1 RES     
   17700 C5        -257.3245  -173.0387   353.8117 C5            1 RES     
   17701 C5        -257.2448  -172.8942   352.1849 C5            1 RES     
   17702 C5        -258.2717  -173.6676   351.2381 C5            1 RES     
   17703 C5        -258.4566  -173.0685   349.7769 C5            1 RES     
   17704 C5        -259.3267  -173.9294   348.7829 C5            1 RES     
   17705 C5        -258.8879  -175.4067   348.6822 C5            1 RES     
   17706 C5        -257.3910  -175.6020   348.3395 C5            1 RES     
   17707 C5        -257.0858  -176.2228   346.9713 C5            1 RES     
   17708 C5        -257.5948  -175.4209   345.7785 C5            1 RES     
   17709 C5        -255.8689  -173.8742   354.8529 C5            1 RES     
   17710 C0        -255.3010  -175.1116   356.2593 C0            1 RES     
   17711 C5        -256.3774  -176.2182   356.1172 C5            1 RES     
   17712 C5        -257.8826  -175.7256   355.8582 C5            1 RES     
   17713 C5        -258.6386  -175.3730   357.1507 C5            1 RES     
   17714 C5        -257.9471  -174.4089   358.1420 C5            1 RES     
   17715 C5        -257.4708  -173.0623   357.5548 C5            1 RES     
   17716 C5        -257.1112  -172.0069   358.5924 C5            1 RES     
   17717 C5        -256.0802  -172.5111   359.6026 C5            1 RES     
   17718 C5        -255.9369  -171.5257   360.7579 C5            1 RES     
   17719 C5        -255.1647  -172.1893   361.8901 C5            1 RES     
   17720 C5        -255.1519  -171.3598   363.1537 C5            1 RES     
   17721 C5        -258.6628  -176.7375   354.9515 C5            1 RES     
   17722 C5        -259.9722  -176.3345   354.1705 C5            1 RES     
   17723 C5        -261.3501  -176.1594   354.8652 C5            1 RES     
   17724 C5        -261.7408  -177.3851   355.7010 C5            1 RES     
   17725 C5        -263.2209  -177.3887   356.1455 C5            1 RES     
   17726 C5        -263.4793  -178.4148   357.2708 C5            1 RES     
   17727 C5        -263.1067  -179.8781   356.9531 C5            1 RES     
   17728 C5        -263.9646  -180.5593   355.8706 C5            1 RES     
   17729 C5        -265.4644  -180.6747   356.2078 C5            1 RES     
   17730 C5        -265.7417  -181.4756   357.4831 C5            1 RES     
   17731 H6        -268.9757  -165.3896   350.4605 H6            1 RES     
   17732 H6        -269.6970  -166.7504   349.5233 H6            1 RES     
   17733 H6        -270.2029  -166.4419   351.2158 H6            1 RES     
   17734 H6        -267.9503  -166.9987   352.0698 H6            1 RES     
   17735 H6        -268.6362  -168.4060   351.1661 H6            1 RES     
   17736 H6        -267.1899  -167.8125   349.1663 H6            1 RES     
   17737 H6        -266.6792  -166.3392   350.0261 H6            1 RES     
   17738 H6        -265.4528  -167.6355   351.7663 H6            1 RES     
   17739 H6        -264.7741  -167.7679   350.1044 H6            1 RES     
   17740 H6        -265.5810  -170.1075   349.8805 H6            1 RES     
   17741 H6        -266.4019  -169.9506   351.4376 H6            1 RES     
   17742 H6        -264.6181  -171.4545   351.8048 H6            1 RES     
   17743 H6        -264.2452  -169.9816   352.7462 H6            1 RES     
   17744 H6        -262.8489  -171.0251   350.2279 H6            1 RES     
   17745 H6        -262.2308  -169.6114   351.0698 H6            1 RES     
   17746 H6        -260.8161  -171.8117   350.9719 H6            1 RES     
   17747 H6        -261.9813  -172.6424   352.0008 H6            1 RES     
   17748 H6        -259.7708  -170.5873   352.9230 H6            1 RES     
   17749 H6        -260.9856  -171.3552   353.9642 H6            1 RES     
   17750 H6        -259.5969  -173.4631   354.2174 H6            1 RES     
   17751 H6        -258.9875  -171.9917   354.9321 H6            1 RES     
   17752 H6        -256.8898  -172.0292   353.9872 H6            1 RES     
   17753 H6        -256.2118  -172.9680   351.7897 H6            1 RES     
   17754 H6        -257.5359  -171.8312   351.9737 H6            1 RES     
   17755 H6        -259.2965  -173.6750   351.6592 H6            1 RES     
   17756 H6        -257.9164  -174.7080   351.1766 H6            1 RES     
   17757 H6        -257.4727  -172.8879   349.3127 H6            1 RES     
   17758 H6        -258.9271  -172.0582   349.8110 H6            1 RES     
   17759 H6        -259.3046  -173.4734   347.7635 H6            1 RES     
   17760 H6        -260.3954  -173.9229   349.0999 H6            1 RES     
   17761 H6        -259.0814  -175.8439   349.6813 H6            1 RES     
   17762 H6        -259.5379  -175.9946   347.9938 H6            1 RES     
   17763 H6        -256.8117  -174.6700   348.4458 H6            1 RES     
   17764 H6        -256.9730  -176.3036   349.0914 H6            1 RES     
   17765 H6        -257.5130  -177.2466   346.9283 H6            1 RES     
   17766 H6        -255.9790  -176.3049   346.8906 H6            1 RES     
   17767 H6        -257.1852  -174.3897   345.7885 H6            1 RES     
   17768 H6        -257.2619  -175.9269   344.8458 H6            1 RES     
   17769 H6        -258.7034  -175.3848   345.7760 H6            1 RES     
   17770 H6        -255.3581  -172.9545   355.2192 H6            1 RES     
   17771 H6        -255.1769  -174.1406   354.0262 H6            1 RES     
   17772 H6        -256.0170  -176.7820   355.2354 H6            1 RES     
   17773 H6        -256.3447  -176.8863   357.0001 H6            1 RES     
   17774 H6        -257.9184  -174.8371   355.2560 H6            1 RES     
   17775 H6        -259.6052  -174.9224   356.8639 H6            1 RES     
   17776 H6        -258.8457  -176.3097   357.7019 H6            1 RES     
   17777 H6        -258.6906  -174.2054   358.9405 H6            1 RES     
   17778 H6        -257.0828  -174.9387   358.5947 H6            1 RES     
   17779 H6        -256.5568  -173.2132   357.0151 H6            1 RES     
   17780 H6        -258.2361  -172.6390   356.8847 H6            1 RES     
   17781 H6        -256.7126  -171.1016   358.0782 H6            1 RES     
   17782 H6        -258.0493  -171.7347   359.1152 H6            1 RES     
   17783 H6        -256.4610  -173.4526   360.0413 H6            1 RES     
   17784 H6        -255.0988  -172.7185   359.1174 H6            1 RES     
   17785 H6        -255.4381  -170.5898   360.4219 H6            1 RES     
   17786 H6        -256.9525  -171.2859   361.1361 H6            1 RES     
   17787 H6        -254.1271  -172.3271   361.5576 H6            1 RES     
   17788 H6        -255.6395  -173.1686   362.1377 H6            1 RES     
   17789 H6        -254.6233  -170.4040   362.9688 H6            1 RES     
   17790 H6        -254.6225  -171.9314   363.9460 H6            1 RES     
   17791 H6        -256.1935  -171.1679   363.4859 H6            1 RES     
   17792 H6        -258.8087  -177.6927   355.4868 H6            1 RES     
   17793 H6        -257.9627  -176.9299   354.1070 H6            1 RES     
   17794 H6        -259.7839  -175.4504   353.5325 H6            1 RES     
   17795 H6        -260.1383  -177.1607   353.4454 H6            1 RES     
   17796 H6        -261.3989  -175.2414   355.4871 H6            1 RES     
   17797 H6        -262.1043  -176.0317   354.0511 H6            1 RES     
   17798 H6        -261.0786  -177.3840   356.5906 H6            1 RES     
   17799 H6        -261.5681  -178.3083   355.1081 H6            1 RES     
   17800 H6        -263.8852  -177.5795   355.2712 H6            1 RES     
   17801 H6        -263.4919  -176.3925   356.5583 H6            1 RES     
   17802 H6        -264.5393  -178.3571   357.5968 H6            1 RES     
   17803 H6        -262.8605  -178.1009   358.1389 H6            1 RES     
   17804 H6        -263.1817  -180.4680   357.8892 H6            1 RES     
   17805 H6        -262.0406  -179.9281   356.6501 H6            1 RES     
   17806 H6        -263.8521  -180.0116   354.9113 H6            1 RES     
   17807 H6        -263.5659  -181.5868   355.7174 H6            1 RES     
   17808 H6        -265.9187  -179.6669   356.2999 H6            1 RES     
   17809 H6        -265.9656  -181.1941   355.3622 H6            1 RES     
   17810 H6        -265.3118  -182.4969   357.4028 H6            1 RES     
   17811 H6        -265.3208  -180.9682   358.3751 H6            1 RES     
   17812 H6        -266.8382  -181.5638   357.6338 H6            1 RES     
   17813 C0        -244.8289  -180.5543   366.7687 C0            1 RES     
   17814 C0        -246.3383  -179.6615   367.3566 C0            1 RES     
   17815 C0        -247.3682  -180.5802   367.5146 C0            1 RES     
   17816 S1        -248.9373  -179.9210   367.7490 S1            1 RES     
   17817 C0        -248.6670  -178.2841   367.6941 C0            1 RES     
   17818 C0        -247.1243  -178.2759   367.4948 C0            1 RES     
   17819 C0        -247.0669  -181.8652   366.8823 C0            1 RES     
   17820 C0        -245.9439  -181.3317   366.0079 C0            1 RES     
   17821 C0        -246.4014  -180.9983   364.7703 C0            1 RES     
   17822 C0        -247.7188  -181.3611   364.5010 C0            1 RES     
   17823 S1        -248.5000  -182.2707   365.8059 S1            1 RES     
   17824 H2        -246.6663  -177.3090   367.3240 H2            1 RES     
   17825 H2        -245.8845  -180.3237   364.1075 H2            1 RES     
   17826 N3        -252.5771  -177.4708   367.6393 N3            1 RES     
   17827 C0        -251.3606  -178.0335   367.5777 C0            1 RES     
   17828 C0        -250.0749  -177.3461   367.7931 C0            1 RES     
   17829 C0        -250.3597  -175.9239   368.0769 C0            1 RES     
   17830 N3        -249.4139  -174.9628   368.3232 N3            1 RES     
   17831 S1        -250.3115  -173.5876   368.6035 S1            1 RES     
   17832 N3        -251.8745  -174.0882   368.4129 N3            1 RES     
   17833 C0        -251.7221  -175.3885   368.1286 C0            1 RES     
   17834 C0        -252.8355  -176.1608   367.9049 C0            1 RES     
   17835 H4        -251.3914  -179.0729   367.3370 H4            1 RES     
   17836 C5        -231.6101  -194.6167   368.6996 C5            1 RES     
   17837 C5        -232.6437  -193.4569   368.7713 C5            1 RES     
   17838 C5        -232.2842  -192.2332   367.8662 C5            1 RES     
   17839 C5        -233.4076  -191.1153   367.6082 C5            1 RES     
   17840 C5        -233.8131  -190.0739   368.7384 C5            1 RES     
   17841 C5        -235.1310  -189.0615   368.6152 C5            1 RES     
   17842 C5        -235.2764  -187.6849   367.7109 C5            1 RES     
   17843 C5        -236.4678  -186.4006   367.8156 C5            1 RES     
   17844 C5        -238.0105  -186.1535   367.1307 C5            1 RES     
   17845 C5        -239.3802  -184.9863   367.2068 C5            1 RES     
   17846 C5        -239.8935  -183.4495   366.4655 C5            1 RES     
   17847 C5        -238.3992  -182.8916   366.1057 C5            1 RES     
   17848 C5        -237.2763  -182.7587   367.2328 C5            1 RES     
   17849 C5        -235.7727  -182.7294   366.7162 C5            1 RES     
   17850 C5        -234.6750  -182.4168   367.8041 C5            1 RES     
   17851 C5        -234.9588  -181.1467   368.6356 C5            1 RES     
   17852 C5        -235.2038  -179.8749   367.7880 C5            1 RES     
   17853 C5        -234.1426  -178.7739   367.8981 C5            1 RES     
   17854 C5        -232.7413  -179.1923   367.4667 C5            1 RES     
   17855 C5        -241.4964  -182.3074   366.3003 C5            1 RES     
   17856 C0        -243.1808  -181.6517   367.0516 C0            1 RES     
   17857 C5        -242.8325  -181.6364   368.5621 C5            1 RES     
   17858 C5        -241.9850  -182.8817   369.1154 C5            1 RES     
   17859 C5        -242.8562  -184.0938   369.4874 C5            1 RES     
   17860 C5        -243.8726  -184.5927   368.4345 C5            1 RES     
   17861 C5        -243.2988  -184.9031   367.0347 C5            1 RES     
   17862 C5        -244.2262  -185.7035   366.1297 C5            1 RES     
   17863 C5        -245.6001  -185.0495   365.9795 C5            1 RES     
   17864 C5        -246.5698  -185.9964   365.2800 C5            1 RES     
   17865 C5        -247.9881  -185.4634   365.4309 C5            1 RES     
   17866 C5        -249.0345  -186.4406   364.9465 C5            1 RES     
   17867 C5        -241.0223  -182.4443   370.2716 C5            1 RES     
   17868 C5        -239.7761  -183.3083   370.7042 C5            1 RES     
   17869 C5        -239.9013  -184.6148   371.5346 C5            1 RES     
   17870 C5        -240.7168  -184.4131   372.8182 C5            1 RES     
   17871 C5        -240.6015  -185.5850   373.8190 C5            1 RES     
   17872 C5        -241.7013  -185.5248   374.9019 C5            1 RES     
   17873 C5        -241.7592  -184.2295   375.7386 C5            1 RES     
   17874 C5        -240.5573  -183.9898   376.6712 C5            1 RES     
   17875 C5        -240.3527  -185.0654   377.7564 C5            1 RES     
   17876 C5        -241.5505  -185.2152   378.6985 C5            1 RES     
   17877 H6        -231.5174  -195.0207   367.6656 H6            1 RES     
   17878 H6        -230.5997  -194.3114   369.0458 H6            1 RES     
   17879 H6        -231.9354  -195.4708   369.3408 H6            1 RES     
   17880 H6        -233.6073  -193.8916   368.4327 H6            1 RES     
   17881 H6        -232.7399  -193.1409   369.8298 H6            1 RES     
   17882 H6        -231.3200  -191.7961   368.2115 H6            1 RES     
   17883 H6        -232.0747  -192.6922   366.8705 H6            1 RES     
   17884 H6        -234.3100  -191.6712   367.2876 H6            1 RES     
   17885 H6        -233.0375  -190.5160   366.7522 H6            1 RES     
   17886 H6        -232.8938  -189.5076   369.0188 H6            1 RES     
   17887 H6        -234.0153  -190.7371   369.6133 H6            1 RES     
   17888 H6        -235.2128  -188.7020   369.6649 H6            1 RES     
   17889 H6        -235.9939  -189.7219   368.4220 H6            1 RES     
   17890 H6        -234.3225  -187.1875   368.0174 H6            1 RES     
   17891 H6        -235.1077  -187.9660   366.6511 H6            1 RES     
   17892 H6        -235.8490  -185.5731   367.4107 H6            1 RES     
   17893 H6        -236.5084  -186.2208   368.9114 H6            1 RES     
   17894 H6        -237.8378  -186.3454   366.0517 H6            1 RES     
   17895 H6        -238.4815  -187.0713   367.5377 H6            1 RES     
   17896 H6        -239.5237  -184.8829   368.2867 H6            1 RES     
   17897 H6        -240.1798  -185.6573   366.8664 H6            1 RES     
   17898 H6        -240.0591  -183.8543   365.4419 H6            1 RES     
   17899 H6        -238.4128  -181.9944   365.4549 H6            1 RES     
   17900 H6        -237.9420  -183.6849   365.4569 H6            1 RES     
   17901 H6        -237.3017  -183.6085   367.9433 H6            1 RES     
   17902 H6        -237.5012  -181.8361   367.7900 H6            1 RES     
   17903 H6        -235.6671  -182.0013   365.8947 H6            1 RES     
   17904 H6        -235.4860  -183.7017   366.2518 H6            1 RES     
   17905 H6        -233.6742  -182.3171   367.3183 H6            1 RES     
   17906 H6        -234.5868  -183.2673   368.5193 H6            1 RES     
   17907 H6        -235.8773  -181.3681   369.2138 H6            1 RES     
   17908 H6        -234.1805  -180.9680   369.4130 H6            1 RES     
   17909 H6        -235.3685  -180.1067   366.7227 H6            1 RES     
   17910 H6        -236.1510  -179.4209   368.1471 H6            1 RES     
   17911 H6        -234.1041  -178.4034   368.9439 H6            1 RES     
   17912 H6        -234.4738  -177.9359   367.2450 H6            1 RES     
   17913 H6        -232.7420  -179.5675   366.4225 H6            1 RES     
   17914 H6        -232.0746  -178.3041   367.5252 H6            1 RES     
   17915 H6        -232.3396  -179.9719   368.1458 H6            1 RES     
   17916 H6        -241.8785  -182.6732   365.3199 H6            1 RES     
   17917 H6        -241.0193  -181.3639   365.9606 H6            1 RES     
   17918 H6        -242.2313  -180.7115   368.6533 H6            1 RES     
   17919 H6        -243.7587  -181.5147   369.1575 H6            1 RES     
   17920 H6        -241.2839  -183.2473   368.3887 H6            1 RES     
   17921 H6        -242.1807  -184.9344   369.7258 H6            1 RES     
   17922 H6        -243.4312  -183.8452   370.3993 H6            1 RES     
   17923 H6        -244.3147  -185.5214   368.8515 H6            1 RES     
   17924 H6        -244.6766  -183.8327   368.3418 H6            1 RES     
   17925 H6        -243.1482  -183.9857   366.5007 H6            1 RES     
   17926 H6        -242.3452  -185.4487   367.1187 H6            1 RES     
   17927 H6        -243.7581  -185.8149   365.1240 H6            1 RES     
   17928 H6        -244.3345  -186.7077   366.5847 H6            1 RES     
   17929 H6        -246.0103  -184.8755   366.9921 H6            1 RES     
   17930 H6        -245.5322  -184.0703   365.4521 H6            1 RES     
   17931 H6        -246.2972  -186.1239   364.2090 H6            1 RES     
   17932 H6        -246.5219  -186.9805   365.7914 H6            1 RES     
   17933 H6        -248.0706  -184.5455   364.8335 H6            1 RES     
   17934 H6        -248.1941  -185.2598   366.5088 H6            1 RES     
   17935 H6        -248.9090  -186.6155   363.8598 H6            1 RES     
   17936 H6        -250.0391  -186.0074   365.1407 H6            1 RES     
   17937 H6        -248.9421  -187.3953   365.5052 H6            1 RES     
   17938 H6        -241.6072  -182.1363   371.1566 H6            1 RES     
   17939 H6        -240.5207  -181.5355   369.8682 H6            1 RES     
   17940 H6        -239.1223  -183.5049   369.8336 H6            1 RES     
   17941 H6        -239.1716  -182.6348   371.3499 H6            1 RES     
   17942 H6        -240.3206  -185.4555   370.9435 H6            1 RES     
   17943 H6        -238.8630  -184.9134   371.8187 H6            1 RES     
   17944 H6        -241.7728  -184.2864   372.5041 H6            1 RES     
   17945 H6        -240.3691  -183.4951   373.3378 H6            1 RES     
   17946 H6        -239.5871  -185.5989   374.2807 H6            1 RES     
   17947 H6        -240.7371  -186.5505   373.2846 H6            1 RES     
   17948 H6        -241.6167  -186.4050   375.5737 H6            1 RES     
   17949 H6        -242.6753  -185.6176   374.3749 H6            1 RES     
   17950 H6        -242.6845  -184.2504   376.3496 H6            1 RES     
   17951 H6        -241.8660  -183.3584   375.0598 H6            1 RES     
   17952 H6        -239.6303  -183.9082   376.0655 H6            1 RES     
   17953 H6        -240.7112  -183.0121   377.1798 H6            1 RES     
   17954 H6        -240.1256  -186.0462   377.2907 H6            1 RES     
   17955 H6        -239.4720  -184.7706   378.3675 H6            1 RES     
   17956 H6        -241.7818  -184.2468   379.1914 H6            1 RES     
   17957 H6        -242.4474  -185.5742   378.1533 H6            1 RES     
   17958 H6        -241.3131  -185.9641   379.4831 H6            1 RES     
   17959 C0        -257.4129  -174.8975   365.8009 C0            1 RES     
   17960 C0        -257.2855  -176.7082   366.1561 C0            1 RES     
   17961 C0        -257.2025  -176.8895   367.5308 C0            1 RES     
   17962 S1        -256.7627  -178.4643   368.0585 S1            1 RES     
   17963 C0        -256.5635  -179.2935   366.6344 C0            1 RES     
   17964 C0        -256.9266  -178.1714   365.6202 C0            1 RES     
   17965 C0        -256.9183  -175.6407   368.2388 C0            1 RES     
   17966 C0        -256.4308  -174.8904   367.0100 C0            1 RES     
   17967 C0        -255.0765  -174.9613   366.8966 C0            1 RES     
   17968 C0        -254.4141  -175.5341   367.9796 C0            1 RES     
   17969 S1        -255.4764  -175.9705   369.3292 S1            1 RES     
   17970 H2        -256.7872  -178.4067   364.5719 H2            1 RES     
   17971 H2        -254.5479  -174.7917   365.9729 H2            1 RES     
   17972 N3        -255.0017  -182.4600   368.5020 N3            1 RES     
   17973 C0        -255.4613  -181.2504   368.1469 C0            1 RES     
   17974 C0        -256.0143  -180.8846   366.8306 C0            1 RES     
   17975 C0        -255.9624  -182.0815   365.9652 C0            1 RES     
   17976 N3        -256.3821  -182.1323   364.6612 N3            1 RES     
   17977 S1        -256.1162  -183.7171   364.2219 S1            1 RES     
   17978 N3        -255.4597  -184.3996   365.5758 N3            1 RES     
   17979 C0        -255.4459  -183.3700   366.4329 C0            1 RES     
   17980 C0        -254.9592  -183.5614   367.7028 C0            1 RES     
   17981 H4        -255.3836  -180.5268   368.9276 H4            1 RES     
   17982 C5        -265.9941  -157.6840   368.3057 C5            1 RES     
   17983 C5        -265.5196  -159.1494   368.0913 C5            1 RES     
   17984 C5        -264.6293  -159.3459   366.8205 C5            1 RES     
   17985 C5        -263.8249  -160.7257   366.6549 C5            1 RES     
   17986 C5        -264.5680  -162.0739   366.2597 C5            1 RES     
   17987 C5        -263.8346  -163.5693   366.3147 C5            1 RES     
   17988 C5        -262.7429  -164.2077   365.2497 C5            1 RES     
   17989 C5        -262.2242  -165.8718   365.0452 C5            1 RES     
   17990 C5        -261.0070  -166.8320   365.7570 C5            1 RES     
   17991 C5        -260.4160  -168.5334   365.7517 C5            1 RES     
   17992 C5        -259.3199  -169.5841   364.8194 C5            1 RES     
   17993 C5        -259.4355  -168.7836   363.3983 C5            1 RES     
   17994 C5        -260.8547  -168.5121   362.7192 C5            1 RES     
   17995 C5        -260.9081  -167.3140   361.6751 C5            1 RES     
   17996 C5        -262.2553  -167.1589   360.8706 C5            1 RES     
   17997 C5        -262.7319  -168.4593   360.1873 C5            1 RES     
   17998 C5        -261.6726  -169.1203   359.2723 C5            1 RES     
   17999 C5        -261.9868  -169.1308   357.7718 C5            1 RES     
   18000 C5        -262.1493  -167.7509   357.1439 C5            1 RES     
   18001 C5        -258.4271  -171.3409   364.9524 C5            1 RES     
   18002 C0        -258.4237  -173.1811   365.6195 C0            1 RES     
   18003 C5        -259.9389  -173.5050   365.5706 C5            1 RES     
   18004 C5        -260.9368  -172.3412   366.0452 C5            1 RES     
   18005 C5        -261.1515  -172.3070   367.5682 C5            1 RES     
   18006 C5        -259.8933  -172.3016   368.4667 C5            1 RES     
   18007 C5        -258.8521  -171.2015   368.1657 C5            1 RES     
   18008 C5        -257.8070  -170.9989   369.2550 C5            1 RES     
   18009 C5        -257.0824  -172.2963   369.6152 C5            1 RES     
   18010 C5        -256.2339  -172.1051   370.8681 C5            1 RES     
   18011 C5        -255.7895  -173.4665   371.3853 C5            1 RES     
   18012 C5        -255.1166  -173.3873   372.7365 C5            1 RES     
   18013 C5        -262.2803  -172.3823   365.2402 C5            1 RES     
   18014 C5        -263.2515  -171.1428   365.1559 C5            1 RES     
   18015 C5        -264.1685  -170.7065   366.3310 C5            1 RES     
   18016 C5        -265.0329  -171.8607   366.8546 C5            1 RES     
   18017 C5        -266.1724  -171.4074   367.7949 C5            1 RES     
   18018 C5        -266.7718  -172.5931   368.5828 C5            1 RES     
   18019 C5        -267.3295  -173.7569   367.7369 C5            1 RES     
   18020 C5        -268.5814  -173.4277   366.9024 C5            1 RES     
   18021 C5        -269.8162  -173.0051   367.7229 C5            1 RES     
   18022 C5        -270.2821  -174.0737   368.7158 C5            1 RES     
   18023 H6        -265.1333  -156.9874   368.4273 H6            1 RES     
   18024 H6        -266.6270  -157.3128   367.4716 H6            1 RES     
   18025 H6        -266.5978  -157.6012   369.2412 H6            1 RES     
   18026 H6        -264.9297  -159.4096   368.9948 H6            1 RES     
   18027 H6        -266.4148  -159.8018   368.0418 H6            1 RES     
   18028 H6        -265.2253  -159.0892   365.9156 H6            1 RES     
   18029 H6        -263.8537  -158.5486   366.9142 H6            1 RES     
   18030 H6        -263.2916  -160.8741   367.6138 H6            1 RES     
   18031 H6        -263.0771  -160.5383   365.8584 H6            1 RES     
   18032 H6        -265.0688  -161.9058   365.2771 H6            1 RES     
   18033 H6        -265.4026  -162.1130   367.0001 H6            1 RES     
   18034 H6        -264.7204  -164.2361   366.2219 H6            1 RES     
   18035 H6        -263.4485  -163.6713   367.3435 H6            1 RES     
   18036 H6        -263.2904  -163.9821   364.3007 H6            1 RES     
   18037 H6        -261.8669  -163.5274   365.2262 H6            1 RES     
   18038 H6        -261.9468  -165.8235   363.9717 H6            1 RES     
   18039 H6        -263.1939  -166.4137   365.0684 H6            1 RES     
   18040 H6        -260.1015  -166.1981   365.6608 H6            1 RES     
   18041 H6        -261.3523  -166.7228   366.8052 H6            1 RES     
   18042 H6        -261.3459  -169.0916   365.8968 H6            1 RES     
   18043 H6        -259.9180  -168.5316   366.7303 H6            1 RES     
   18044 H6        -258.3771  -169.0673   365.1076 H6            1 RES     
   18045 H6        -258.6961  -169.1218   362.6449 H6            1 RES     
   18046 H6        -259.1180  -167.7327   363.6308 H6            1 RES     
   18047 H6        -261.6283  -168.2523   363.4687 H6            1 RES     
   18048 H6        -261.1511  -169.4524   362.2291 H6            1 RES     
   18049 H6        -260.0788  -167.4015   360.9534 H6            1 RES     
   18050 H6        -260.7268  -166.3340   362.1750 H6            1 RES     
   18051 H6        -262.1479  -166.3602   360.0973 H6            1 RES     
   18052 H6        -263.0736  -166.8228   361.5488 H6            1 RES     
   18053 H6        -262.9720  -169.1586   361.0120 H6            1 RES     
   18054 H6        -263.6991  -168.3245   359.6502 H6            1 RES     
   18055 H6        -260.6657  -168.6970   359.4233 H6            1 RES     
   18056 H6        -261.5995  -170.1859   359.5748 H6            1 RES     
   18057 H6        -262.9101  -169.7209   357.5934 H6            1 RES     
   18058 H6        -261.1413  -169.6478   357.2657 H6            1 RES     
   18059 H6        -261.2416  -167.1325   357.3019 H6            1 RES     
   18060 H6        -262.3075  -167.8777   356.0504 H6            1 RES     
   18061 H6        -263.0351  -167.2321   357.5639 H6            1 RES     
   18062 H6        -257.4414  -171.0125   365.3543 H6            1 RES     
   18063 H6        -258.1422  -171.4867   363.8890 H6            1 RES     
   18064 H6        -260.0985  -173.7117   364.4950 H6            1 RES     
   18065 H6        -260.1410  -174.4326   366.1414 H6            1 RES     
   18066 H6        -260.5700  -171.3653   365.7874 H6            1 RES     
   18067 H6        -261.7371  -171.4014   367.8060 H6            1 RES     
   18068 H6        -261.7514  -173.1905   367.8572 H6            1 RES     
   18069 H6        -260.2598  -172.1695   369.5060 H6            1 RES     
   18070 H6        -259.4085  -173.2974   368.3899 H6            1 RES     
   18071 H6        -258.2758  -171.4829   367.3066 H6            1 RES     
   18072 H6        -259.3500  -170.2358   367.9831 H6            1 RES     
   18073 H6        -257.0621  -170.2409   368.9183 H6            1 RES     
   18074 H6        -258.3385  -170.6048   370.1436 H6            1 RES     
   18075 H6        -257.8450  -173.0568   369.8682 H6            1 RES     
   18076 H6        -256.4737  -172.6756   368.7626 H6            1 RES     
   18077 H6        -255.3617  -171.4466   370.6602 H6            1 RES     
   18078 H6        -256.8698  -171.6377   371.6486 H6            1 RES     
   18079 H6        -255.0718  -173.8843   370.6667 H6            1 RES     
   18080 H6        -256.6804  -174.1300   371.4937 H6            1 RES     
   18081 H6        -254.1847  -172.7936   372.6565 H6            1 RES     
   18082 H6        -254.8740  -174.4186   373.0712 H6            1 RES     
   18083 H6        -255.8077  -172.9253   373.4721 H6            1 RES     
   18084 H6        -262.8430  -173.3002   365.4871 H6            1 RES     
   18085 H6        -261.9506  -172.4661   364.1798 H6            1 RES     
   18086 H6        -262.7100  -170.2533   364.7820 H6            1 RES     
   18087 H6        -263.9615  -171.3911   364.3372 H6            1 RES     
   18088 H6        -263.5997  -170.2459   367.1654 H6            1 RES     
   18089 H6        -264.8442  -169.9121   365.9309 H6            1 RES     
   18090 H6        -264.3488  -172.5477   367.3930 H6            1 RES     
   18091 H6        -265.4987  -172.3929   365.9982 H6            1 RES     
   18092 H6        -266.9610  -170.8740   367.2153 H6            1 RES     
   18093 H6        -265.7754  -170.6948   368.5504 H6            1 RES     
   18094 H6        -267.5532  -172.2248   369.2806 H6            1 RES     
   18095 H6        -265.9532  -173.0076   369.2099 H6            1 RES     
   18096 H6        -267.5676  -174.5995   368.4175 H6            1 RES     
   18097 H6        -266.5351  -174.1320   367.0594 H6            1 RES     
   18098 H6        -268.3398  -172.6242   366.1752 H6            1 RES     
   18099 H6        -268.8499  -174.3365   366.3191 H6            1 RES     
   18100 H6        -269.6138  -172.0600   368.2672 H6            1 RES     
   18101 H6        -270.6490  -172.8128   367.0120 H6            1 RES     
   18102 H6        -270.5100  -175.0238   368.1870 H6            1 RES     
   18103 H6        -269.5140  -174.2606   369.4939 H6            1 RES     
   18104 H6        -271.2024  -173.7251   369.2301 H6            1 RES     
   18105 C0        -251.2022  -186.7190   369.4027 C0            1 RES     
   18106 C0        -251.8458  -185.6178   370.7423 C0            1 RES     
   18107 C0        -253.1709  -185.9492   370.9955 C0            1 RES     
   18108 S1        -254.0494  -184.8466   371.9775 S1            1 RES     
   18109 C0        -252.9302  -183.6659   372.3069 C0            1 RES     
   18110 C0        -251.6976  -184.2522   371.5608 C0            1 RES     
   18111 C0        -253.7385  -186.8027   369.9510 C0            1 RES     
   18112 C0        -252.6658  -186.4942   368.9192 C0            1 RES     
   18113 C0        -253.0531  -185.4823   368.0958 C0            1 RES     
   18114 C0        -254.3734  -185.0635   368.2417 C0            1 RES     
   18115 S1        -255.3063  -186.0074   369.4160 S1            1 RES     
   18116 H2        -250.8150  -183.6250   371.5227 H2            1 RES     
   18117 H2        -252.3633  -184.8903   367.5168 H2            1 RES     
   18118 N3        -255.6816  -181.2808   373.9483 N3            1 RES     
   18119 C0        -255.0098  -182.2292   373.2778 C0            1 RES     
   18120 C0        -253.5442  -182.3571   373.1910 C0            1 RES     
   18121 C0        -252.9430  -181.2490   373.9625 C0            1 RES     
   18122 N3        -251.5983  -181.0271   374.1091 N3            1 RES     
   18123 S1        -251.5242  -179.6835   375.0913 S1            1 RES     
   18124 N3        -253.1088  -179.2986   375.3575 N3            1 RES     
   18125 C0        -253.7507  -180.2530   374.6704 C0            1 RES     
   18126 C0        -255.1239  -180.2637   374.6611 C0            1 RES     
   18127 H4        -255.6497  -182.9187   372.7734 H4            1 RES     
   18128 C5        -247.8910  -204.3750   362.0873 C5            1 RES     
   18129 C5        -248.0809  -203.0465   362.8731 C5            1 RES     
   18130 C5        -247.2541  -201.8493   362.2995 C5            1 RES     
   18131 C5        -247.5934  -200.3671   362.8159 C5            1 RES     
   18132 C5        -247.1661  -199.8788   364.2668 C5            1 RES     
   18133 C5        -247.7010  -198.4529   364.9434 C5            1 RES     
   18134 C5        -247.2018  -196.9140   364.6026 C5            1 RES     
   18135 C5        -247.4462  -195.4334   365.5126 C5            1 RES     
   18136 C5        -248.6790  -194.2550   365.5540 C5            1 RES     
   18137 C5        -249.1385  -192.7743   366.4707 C5            1 RES     
   18138 C5        -248.8247  -191.0204   366.4569 C5            1 RES     
   18139 C5        -247.3528  -191.0856   365.7479 C5            1 RES     
   18140 C5        -246.1813  -191.9789   366.3631 C5            1 RES     
   18141 C5        -245.0199  -192.3905   365.3581 C5            1 RES     
   18142 C5        -243.7756  -193.1153   366.0006 C5            1 RES     
   18143 C5        -243.1701  -192.3697   367.2099 C5            1 RES     
   18144 C5        -242.8011  -190.8935   366.9254 C5            1 RES     
   18145 C5        -241.3065  -190.5530   366.9501 C5            1 RES     
   18146 C5        -240.4631  -191.3063   365.9272 C5            1 RES     
   18147 C5        -249.5273  -189.3489   367.2403 C5            1 RES     
   18148 C0        -250.4191  -188.4279   368.7195 C0            1 RES     
   18149 C5        -249.8839  -189.2411   369.9259 C5            1 RES     
   18150 C5        -249.7932  -190.8319   369.7349 C5            1 RES     
   18151 C5        -251.1170  -191.5571   370.0322 C5            1 RES     
   18152 C5        -252.3925  -191.0290   369.3359 C5            1 RES     
   18153 C5        -252.3204  -190.9023   367.7985 C5            1 RES     
   18154 C5        -253.6666  -190.7142   367.1114 C5            1 RES     
   18155 C5        -254.4503  -189.5309   367.6803 C5            1 RES     
   18156 C5        -255.8793  -189.5298   367.1472 C5            1 RES     
   18157 C5        -256.7180  -188.5550   367.9627 C5            1 RES     
   18158 C5        -258.1920  -188.6392   367.6388 C5            1 RES     
   18159 C5        -248.5791  -191.4300   370.5242 C5            1 RES     
   18160 C5        -247.9709  -192.8461   370.1903 C5            1 RES     
   18161 C5        -248.6640  -194.1781   370.5869 C5            1 RES     
   18162 C5        -249.0125  -194.2312   372.0800 C5            1 RES     
   18163 C5        -249.4074  -195.6403   372.5768 C5            1 RES     
   18164 C5        -250.0986  -195.5890   373.9572 C5            1 RES     
   18165 C5        -249.2937  -194.9257   375.0945 C5            1 RES     
   18166 C5        -248.0297  -195.6843   375.5401 C5            1 RES     
   18167 C5        -248.2847  -197.0952   376.1064 C5            1 RES     
   18168 C5        -249.1950  -197.1016   377.3377 C5            1 RES     
   18169 H6        -248.2051  -204.2712   361.0235 H6            1 RES     
   18170 H6        -246.8411  -204.7372   362.1064 H6            1 RES     
   18171 H6        -248.5274  -205.1820   362.5236 H6            1 RES     
   18172 H6        -249.1631  -202.8092   362.8055 H6            1 RES     
   18173 H6        -247.8146  -203.2282   363.9340 H6            1 RES     
   18174 H6        -246.1690  -202.0879   362.3735 H6            1 RES     
   18175 H6        -247.4971  -201.8570   361.2100 H6            1 RES     
   18176 H6        -248.6899  -200.2594   362.7060 H6            1 RES     
   18177 H6        -247.0962  -199.6831   362.0991 H6            1 RES     
   18178 H6        -246.0564  -199.9681   364.3380 H6            1 RES     
   18179 H6        -247.5585  -200.6953   364.9192 H6            1 RES     
   18180 H6        -247.4003  -198.6032   366.0039 H6            1 RES     
   18181 H6        -248.8028  -198.5007   364.9007 H6            1 RES     
   18182 H6        -246.0978  -197.0838   364.6639 H6            1 RES     
   18183 H6        -247.3898  -196.7365   363.5238 H6            1 RES     
   18184 H6        -246.5470  -194.8818   365.1677 H6            1 RES     
   18185 H6        -247.2039  -195.7624   366.5458 H6            1 RES     
   18186 H6        -248.8173  -194.0013   364.4828 H6            1 RES     
   18187 H6        -249.5071  -194.9433   365.8194 H6            1 RES     
   18188 H6        -249.0252  -193.1103   367.5059 H6            1 RES     
   18189 H6        -250.2181  -192.7928   366.2716 H6            1 RES     
   18190 H6        -249.3485  -190.8078   365.4980 H6            1 RES     
   18191 H6        -246.9709  -190.0911   365.4415 H6            1 RES     
   18192 H6        -247.5231  -191.6174   364.7746 H6            1 RES     
   18193 H6        -246.5591  -192.9458   366.7505 H6            1 RES     
   18194 H6        -245.7642  -191.4083   367.2073 H6            1 RES     
   18195 H6        -244.6618  -191.5046   364.8076 H6            1 RES     
   18196 H6        -245.3991  -193.0686   364.5583 H6            1 RES     
   18197 H6        -242.9808  -193.2637   365.2299 H6            1 RES     
   18198 H6        -244.0603  -194.1349   366.3496 H6            1 RES     
   18199 H6        -243.9502  -192.3935   367.9959 H6            1 RES     
   18200 H6        -242.3106  -192.9196   367.6583 H6            1 RES     
   18201 H6        -243.2350  -190.5279   365.9800 H6            1 RES     
   18202 H6        -243.2654  -190.2810   367.7263 H6            1 RES     
   18203 H6        -240.9019  -190.7461   367.9657 H6            1 RES     
   18204 H6        -241.2172  -189.4635   366.7423 H6            1 RES     
   18205 H6        -240.8391  -191.1343   364.8976 H6            1 RES     
   18206 H6        -239.4169  -190.9345   365.9907 H6            1 RES     
   18207 H6        -240.4583  -192.3931   366.1488 H6            1 RES     
   18208 H6        -250.1994  -189.0296   366.4113 H6            1 RES     
   18209 H6        -248.6692  -188.6733   367.0395 H6            1 RES     
   18210 H6        -248.8656  -188.8264   370.0532 H6            1 RES     
   18211 H6        -250.4774  -189.0019   370.8301 H6            1 RES     
   18212 H6        -249.5398  -191.1035   368.7273 H6            1 RES     
   18213 H6        -250.9930  -192.6165   369.7458 H6            1 RES     
   18214 H6        -251.3025  -191.5147   371.1221 H6            1 RES     
   18215 H6        -253.2014  -191.7429   369.5963 H6            1 RES     
   18216 H6        -252.6427  -190.0405   369.7748 H6            1 RES     
   18217 H6        -251.7746  -190.0165   367.5399 H6            1 RES     
   18218 H6        -251.8305  -191.7859   367.3590 H6            1 RES     
   18219 H6        -253.5074  -190.5608   366.0186 H6            1 RES     
   18220 H6        -254.2387  -191.6513   367.2592 H6            1 RES     
   18221 H6        -254.5264  -189.6642   368.7759 H6            1 RES     
   18222 H6        -253.9367  -188.5635   367.4764 H6            1 RES     
   18223 H6        -255.8991  -189.2736   366.0648 H6            1 RES     
   18224 H6        -256.3037  -190.5452   367.2926 H6            1 RES     
   18225 H6        -256.3724  -187.5378   367.7349 H6            1 RES     
   18226 H6        -256.6005  -188.7845   369.0486 H6            1 RES     
   18227 H6        -258.3607  -188.3480   366.5833 H6            1 RES     
   18228 H6        -258.7412  -187.9442   368.3095 H6            1 RES     
   18229 H6        -258.5561  -189.6723   367.8180 H6            1 RES     
   18230 H6        -248.7441  -191.3250   371.6114 H6            1 RES     
   18231 H6        -247.7304  -190.7640   370.2480 H6            1 RES     
   18232 H6        -247.6855  -192.9012   369.1228 H6            1 RES     
   18233 H6        -247.0003  -192.8752   370.7317 H6            1 RES     
   18234 H6        -249.5673  -194.3854   369.9761 H6            1 RES     
   18235 H6        -247.9360  -194.9956   370.3645 H6            1 RES     
   18236 H6        -249.8551  -193.5265   372.2323 H6            1 RES     
   18237 H6        -248.1363  -193.9003   372.6770 H6            1 RES     
   18238 H6        -248.5126  -196.3044   372.6029 H6            1 RES     
   18239 H6        -250.1391  -196.0954   371.8741 H6            1 RES     
   18240 H6        -250.4097  -196.6109   374.2607 H6            1 RES     
   18241 H6        -251.0300  -194.9968   373.8273 H6            1 RES     
   18242 H6        -249.9630  -194.8049   375.9705 H6            1 RES     
   18243 H6        -249.0070  -193.8980   374.7905 H6            1 RES     
   18244 H6        -247.3245  -195.7608   374.6860 H6            1 RES     
   18245 H6        -247.5319  -195.0804   376.3312 H6            1 RES     
   18246 H6        -248.7176  -197.7530   375.3250 H6            1 RES     
   18247 H6        -247.3041  -197.5261   376.4041 H6            1 RES     
   18248 H6        -248.7681  -196.4638   378.1409 H6            1 RES     
   18249 H6        -250.2139  -196.7430   377.0854 H6            1 RES     
   18250 H6        -249.2904  -198.1389   377.7222 H6            1 RES     
   18251 C0        -258.4996  -176.3223   374.8756 C0            1 RES     
   18252 C0        -259.3423  -177.9477   374.6123 C0            1 RES     
   18253 C0        -259.1545  -178.7366   375.7401 C0            1 RES     
   18254 S1        -259.5835  -180.3927   375.5817 S1            1 RES     
   18255 C0        -260.1088  -180.4940   374.0104 C0            1 RES     
   18256 C0        -259.9461  -179.0083   373.5792 C0            1 RES     
   18257 C0        -258.1166  -178.2035   376.6234 C0            1 RES     
   18258 C0        -257.4997  -177.2879   375.5785 C0            1 RES     
   18259 C0        -256.4511  -177.8909   374.9550 C0            1 RES     
   18260 C0        -256.0539  -179.1113   375.4961 C0            1 RES     
   18261 S1        -256.9469  -179.5820   376.9526 S1            1 RES     
   18262 H2        -260.1308  -178.7874   372.5348 H2            1 RES     
   18263 H2        -256.0735  -177.5817   373.9941 H2            1 RES     
   18264 N3        -260.2890  -184.4817   374.1513 N3            1 RES     
   18265 C0        -260.0508  -183.1782   374.3623 C0            1 RES     
   18266 C0        -260.5108  -182.0638   373.5145 C0            1 RES     
   18267 C0        -261.2706  -182.6349   372.3828 C0            1 RES     
   18268 N3        -261.8506  -181.9096   371.3746 N3            1 RES     
   18269 S1        -262.5824  -183.0669   370.4256 S1            1 RES     
   18270 N3        -262.2074  -184.4905   371.1757 N3            1 RES     
   18271 C0        -261.4879  -184.0751   372.2268 C0            1 RES     
   18272 C0        -260.9929  -185.0036   373.1093 C0            1 RES     
   18273 H4        -259.4611  -182.9956   375.2330 H4            1 RES     
   18274 C5        -255.5651  -160.2302   385.2989 C5            1 RES     
   18275 C5        -256.0242  -161.4865   384.5056 C5            1 RES     
   18276 C5        -255.6098  -161.4681   382.9977 C5            1 RES     
   18277 C5        -255.7442  -162.8251   382.1499 C5            1 RES     
   18278 C5        -257.1618  -163.3720   381.6835 C5            1 RES     
   18279 C5        -257.3829  -164.8858   381.0228 C5            1 RES     
   18280 C5        -257.0159  -165.3922   379.4923 C5            1 RES     
   18281 C5        -257.5474  -166.8273   378.6333 C5            1 RES     
   18282 C5        -256.9714  -168.4296   378.5280 C5            1 RES     
   18283 C5        -257.4326  -170.0142   377.8068 C5            1 RES     
   18284 C5        -257.2693  -170.9028   376.2711 C5            1 RES     
   18285 C5        -257.1480  -169.5963   375.2955 C5            1 RES     
   18286 C5        -258.2655  -168.4560   375.3033 C5            1 RES     
   18287 C5        -257.8124  -167.0347   374.7530 C5            1 RES     
   18288 C5        -258.9557  -165.9613   374.5896 C5            1 RES     
   18289 C5        -260.1754  -166.4605   373.7844 C5            1 RES     
   18290 C5        -259.8233  -167.0369   372.3915 C5            1 RES     
   18291 C5        -260.3265  -166.2394   371.1826 C5            1 RES     
   18292 C5        -259.7950  -164.8131   371.0927 C5            1 RES     
   18293 C5        -257.4926  -172.7254   375.5435 C5            1 RES     
   18294 C0        -258.4028  -174.4576   375.5925 C0            1 RES     
   18295 C5        -259.8277  -174.0191   376.0175 C5            1 RES     
   18296 C5        -259.9215  -172.8823   377.1464 C5            1 RES     
   18297 C5        -259.8337  -173.4377   378.5783 C5            1 RES     
   18298 C5        -258.6590  -174.3886   378.9046 C5            1 RES     
   18299 C5        -257.2471  -173.8573   378.5741 C5            1 RES     
   18300 C5        -256.1066  -174.6451   379.2052 C5            1 RES     
   18301 C5        -256.1762  -176.1363   378.8745 C5            1 RES     
   18302 C5        -255.1762  -176.9189   379.7195 C5            1 RES     
   18303 C5        -255.4849  -178.4061   379.6125 C5            1 RES     
   18304 C5        -254.6748  -179.2421   380.5767 C5            1 RES     
   18305 C5        -261.1707  -171.9632   376.9238 C5            1 RES     
   18306 C5        -261.2904  -170.5307   377.5723 C5            1 RES     
   18307 C5        -261.6090  -170.3080   379.0758 C5            1 RES     
   18308 C5        -262.8708  -171.0585   379.5211 C5            1 RES     
   18309 C5        -263.3994  -170.6198   380.9055 C5            1 RES     
   18310 C5        -264.4198  -171.6294   381.4760 C5            1 RES     
   18311 C5        -265.6561  -171.9141   380.5976 C5            1 RES     
   18312 C5        -266.6299  -170.7338   380.4232 C5            1 RES     
   18313 C5        -267.2725  -170.2238   381.7283 C5            1 RES     
   18314 C5        -268.0861  -171.2921   382.4642 C5            1 RES     
   18315 H6        -254.4565  -160.1215   385.2900 H6            1 RES     
   18316 H6        -256.0100  -159.2906   384.9073 H6            1 RES     
   18317 H6        -255.8622  -160.3149   386.3718 H6            1 RES     
   18318 H6        -255.5417  -162.3515   385.0068 H6            1 RES     
   18319 H6        -257.1249  -161.5776   384.6038 H6            1 RES     
   18320 H6        -256.0994  -160.6026   382.4965 H6            1 RES     
   18321 H6        -254.5194  -161.2309   383.0252 H6            1 RES     
   18322 H6        -255.2371  -163.6025   382.7536 H6            1 RES     
   18323 H6        -255.1574  -162.6553   381.2249 H6            1 RES     
   18324 H6        -257.6352  -162.5831   381.0527 H6            1 RES     
   18325 H6        -257.7464  -163.3630   382.6346 H6            1 RES     
   18326 H6        -258.4908  -164.9730   381.0752 H6            1 RES     
   18327 H6        -256.9591  -165.5931   381.7563 H6            1 RES     
   18328 H6        -257.4902  -164.5527   378.9251 H6            1 RES     
   18329 H6        -255.9271  -165.2384   379.3451 H6            1 RES     
   18330 H6        -257.4663  -166.4351   377.5983 H6            1 RES     
   18331 H6        -258.6361  -166.8316   378.8555 H6            1 RES     
   18332 H6        -255.8959  -168.2928   378.2922 H6            1 RES     
   18333 H6        -257.0248  -168.6579   379.6120 H6            1 RES     
   18334 H6        -258.4783  -170.1030   378.1169 H6            1 RES     
   18335 H6        -256.8680  -170.6677   378.4849 H6            1 RES     
   18336 H6        -256.1666  -171.0446   376.3260 H6            1 RES     
   18337 H6        -256.8524  -169.8515   374.2581 H6            1 RES     
   18338 H6        -256.2688  -169.0209   375.6895 H6            1 RES     
   18339 H6        -258.6331  -168.2451   376.3270 H6            1 RES     
   18340 H6        -259.1074  -168.8401   374.7067 H6            1 RES     
   18341 H6        -257.2994  -167.1484   373.7834 H6            1 RES     
   18342 H6        -257.0410  -166.5732   375.4126 H6            1 RES     
   18343 H6        -258.5493  -165.0425   374.1015 H6            1 RES     
   18344 H6        -259.3291  -165.6393   375.5894 H6            1 RES     
   18345 H6        -260.6269  -167.2661   374.3960 H6            1 RES     
   18346 H6        -260.9767  -165.6896   373.7096 H6            1 RES     
   18347 H6        -258.7422  -167.2188   372.2743 H6            1 RES     
   18348 H6        -260.3058  -168.0341   372.3196 H6            1 RES     
   18349 H6        -261.4362  -166.2122   371.1959 H6            1 RES     
   18350 H6        -260.0036  -166.7908   370.2716 H6            1 RES     
   18351 H6        -258.6856  -164.8023   371.0756 H6            1 RES     
   18352 H6        -260.1698  -164.3561   370.1507 H6            1 RES     
   18353 H6        -260.1635  -164.2041   371.9434 H6            1 RES     
   18354 H6        -256.4411  -173.0834   375.6276 H6            1 RES     
   18355 H6        -257.5113  -172.4922   374.4579 H6            1 RES     
   18356 H6        -260.2451  -173.6317   375.0684 H6            1 RES     
   18357 H6        -260.4154  -174.9065   376.3246 H6            1 RES     
   18358 H6        -259.1224  -172.1692   377.0681 H6            1 RES     
   18359 H6        -259.7719  -172.5790   379.2700 H6            1 RES     
   18360 H6        -260.7671  -173.9898   378.7977 H6            1 RES     
   18361 H6        -258.7185  -174.5857   379.9952 H6            1 RES     
   18362 H6        -258.8273  -175.3447   378.3659 H6            1 RES     
   18363 H6        -257.0702  -173.9493   377.5207 H6            1 RES     
   18364 H6        -257.1478  -172.8035   378.8801 H6            1 RES     
   18365 H6        -255.1320  -174.2337   378.8533 H6            1 RES     
   18366 H6        -256.1797  -174.4982   380.3008 H6            1 RES     
   18367 H6        -257.1799  -176.5047   379.1585 H6            1 RES     
   18368 H6        -256.0260  -176.3219   377.7862 H6            1 RES     
   18369 H6        -254.1322  -176.6986   379.4047 H6            1 RES     
   18370 H6        -255.3114  -176.6207   380.7801 H6            1 RES     
   18371 H6        -255.2456  -178.7293   378.5906 H6            1 RES     
   18372 H6        -256.5630  -178.5779   379.8450 H6            1 RES     
   18373 H6        -253.5975  -179.1555   380.3336 H6            1 RES     
   18374 H6        -254.9946  -180.3018   380.4802 H6            1 RES     
   18375 H6        -254.8652  -178.9038   381.6166 H6            1 RES     
   18376 H6        -262.0995  -172.5398   377.0822 H6            1 RES     
   18377 H6        -261.1179  -171.7028   375.8423 H6            1 RES     
   18378 H6        -260.4151  -169.9105   377.3015 H6            1 RES     
   18379 H6        -262.1392  -170.0468   377.0418 H6            1 RES     
   18380 H6        -260.7554  -170.5711   379.7347 H6            1 RES     
   18381 H6        -261.7847  -169.2126   379.2064 H6            1 RES     
   18382 H6        -262.6065  -172.1353   379.5409 H6            1 RES     
   18383 H6        -263.6836  -170.8870   378.7839 H6            1 RES     
   18384 H6        -263.8408  -169.5983   380.8433 H6            1 RES     
   18385 H6        -262.5590  -170.5756   381.6321 H6            1 RES     
   18386 H6        -264.7420  -171.3074   382.4888 H6            1 RES     
   18387 H6        -263.8804  -172.5927   381.6036 H6            1 RES     
   18388 H6        -266.2085  -172.7682   381.0396 H6            1 RES     
   18389 H6        -265.3239  -172.2562   379.5959 H6            1 RES     
   18390 H6        -266.1038  -169.8911   379.9273 H6            1 RES     
   18391 H6        -267.4464  -171.0643   379.7433 H6            1 RES     
   18392 H6        -266.4961  -169.8185   382.4089 H6            1 RES     
   18393 H6        -267.9601  -169.3901   381.4672 H6            1 RES     
   18394 H6        -268.8837  -171.6969   381.8051 H6            1 RES     
   18395 H6        -267.4377  -172.1229   382.8101 H6            1 RES     
   18396 H6        -268.5620  -170.8426   383.3610 H6            1 RES     
   18397 C0        -259.4021  -189.8794   372.2898 C0            1 RES     
   18398 C0        -259.1025  -189.3323   374.0312 C0            1 RES     
   18399 C0        -260.3278  -189.1179   374.6495 C0            1 RES     
   18400 S1        -260.2767  -188.3070   376.1633 S1            1 RES     
   18401 C0        -258.6553  -188.0275   376.3830 C0            1 RES     
   18402 C0        -258.0933  -188.6973   375.0965 C0            1 RES     
   18403 C0        -261.4320  -189.0682   373.6904 C0            1 RES     
   18404 C0        -260.5504  -188.8429   372.4728 C0            1 RES     
   18405 C0        -260.4379  -187.5172   372.1866 C0            1 RES     
   18406 C0        -261.2606  -186.6726   372.9278 C0            1 RES     
   18407 S1        -262.3575  -187.5181   374.0335 S1            1 RES     
   18408 H2        -257.0309  -188.5813   374.9184 H2            1 RES     
   18409 H2        -259.6392  -187.1032   371.5931 H2            1 RES     
   18410 N3        -259.3172  -185.6830   379.5482 N3            1 RES     
   18411 C0        -259.4018  -186.4209   378.4307 C0            1 RES     
   18412 C0        -258.2895  -187.1292   377.7727 C0            1 RES     
   18413 C0        -257.0606  -186.8741   378.5530 C0            1 RES     
   18414 N3        -255.8158  -187.3602   378.2477 N3            1 RES     
   18415 S1        -254.8531  -186.7823   379.4784 S1            1 RES     
   18416 N3        -255.8912  -185.9008   380.4139 N3            1 RES     
   18417 C0        -257.0546  -186.0557   379.7679 C0            1 RES     
   18418 C0        -258.1836  -185.4534   380.2665 C0            1 RES     
   18419 H4        -260.3875  -186.4514   378.0224 H4            1 RES     
   18420 C5        -267.6575  -201.8507   359.4544 C5            1 RES     
   18421 C5        -266.9502  -201.0808   360.6056 C5            1 RES     
   18422 C5        -265.7033  -200.2579   360.1428 C5            1 RES     
   18423 C5        -265.0761  -199.1825   361.1569 C5            1 RES     
   18424 C5        -264.2237  -199.6355   362.4197 C5            1 RES     
   18425 C5        -263.7618  -198.5887   363.6312 C5            1 RES     
   18426 C5        -262.5556  -197.4583   363.5951 C5            1 RES     
   18427 C5        -261.7886  -196.6009   364.9204 C5            1 RES     
   18428 C5        -262.1357  -195.1565   365.7590 C5            1 RES     
   18429 C5        -261.5432  -194.2069   367.1702 C5            1 RES     
   18430 C5        -260.3170  -192.9725   367.5540 C5            1 RES     
   18431 C5        -259.2647  -193.3582   366.3635 C5            1 RES     
   18432 C5        -258.7043  -194.8453   366.2096 C5            1 RES     
   18433 C5        -258.1452  -195.2323   364.7723 C5            1 RES     
   18434 C5        -257.4276  -196.6323   364.6648 C5            1 RES     
   18435 C5        -256.3258  -196.8561   365.7236 C5            1 RES     
   18436 C5        -255.2519  -195.7422   365.7671 C5            1 RES     
   18437 C5        -253.8385  -196.1479   365.3333 C5            1 RES     
   18438 C5        -253.7313  -196.6528   363.8986 C5            1 RES     
   18439 C5        -259.8387  -191.7077   368.9936 C5            1 RES     
   18440 C0        -259.8193  -191.2534   370.8975 C0            1 RES     
   18441 C5        -259.6395  -192.6597   371.5245 C5            1 RES     
   18442 C5        -260.4778  -193.8548   370.8577 C5            1 RES     
   18443 C5        -261.9133  -193.9674   371.3994 C5            1 RES     
   18444 C5        -262.7739  -192.6831   371.4136 C5            1 RES     
   18445 C5        -262.8914  -191.9328   370.0689 C5            1 RES     
   18446 C5        -263.9968  -190.8862   370.0182 C5            1 RES     
   18447 C5        -263.8898  -189.8708   371.1564 C5            1 RES     
   18448 C5        -265.1417  -189.0018   371.2175 C5            1 RES     
   18449 C5        -265.1556  -188.2342   372.5324 C5            1 RES     
   18450 C5        -266.4581  -187.5048   372.7698 C5            1 RES     
   18451 C5        -259.6912  -195.2079   370.9277 C5            1 RES     
   18452 C5        -260.0329  -196.4318   369.9939 C5            1 RES     
   18453 C5        -261.2737  -197.3400   370.2116 C5            1 RES     
   18454 C5        -261.3483  -197.8911   371.6414 C5            1 RES     
   18455 C5        -262.3722  -199.0357   371.8141 C5            1 RES     
   18456 C5        -262.6869  -199.3040   373.3024 C5            1 RES     
   18457 C5        -261.4795  -199.6480   374.1997 C5            1 RES     
   18458 C5        -260.7961  -200.9955   373.9014 C5            1 RES     
   18459 C5        -261.6957  -202.2342   374.0829 C5            1 RES     
   18460 C5        -262.2452  -202.3844   375.5043 C5            1 RES     
   18461 H6        -268.0271  -201.1583   358.6638 H6            1 RES     
   18462 H6        -266.9977  -202.6052   358.9755 H6            1 RES     
   18463 H6        -268.5546  -202.3926   359.8395 H6            1 RES     
   18464 H6        -267.7133  -200.3878   361.0172 H6            1 RES     
   18465 H6        -266.6632  -201.8115   361.3886 H6            1 RES     
   18466 H6        -264.9375  -200.9561   359.7354 H6            1 RES     
   18467 H6        -266.0807  -199.6724   359.2706 H6            1 RES     
   18468 H6        -265.9295  -198.5654   361.4988 H6            1 RES     
   18469 H6        -264.4058  -198.5504   360.5405 H6            1 RES     
   18470 H6        -263.3555  -200.2268   362.0442 H6            1 RES     
   18471 H6        -264.8922  -200.3884   362.9019 H6            1 RES     
   18472 H6        -263.4293  -199.3100   364.4103 H6            1 RES     
   18473 H6        -264.6949  -198.1203   363.9888 H6            1 RES     
   18474 H6        -261.7383  -198.1055   363.1895 H6            1 RES     
   18475 H6        -262.7838  -196.7574   362.7660 H6            1 RES     
   18476 H6        -260.8039  -196.4149   364.4437 H6            1 RES     
   18477 H6        -261.6074  -197.4235   365.6450 H6            1 RES     
   18478 H6        -262.2799  -194.4215   364.9404 H6            1 RES     
   18479 H6        -263.1510  -195.4450   366.0994 H6            1 RES     
   18480 H6        -261.4709  -194.9789   367.9423 H6            1 RES     
   18481 H6        -262.4671  -193.6561   367.3902 H6            1 RES     
   18482 H6        -260.7807  -192.1493   366.9655 H6            1 RES     
   18483 H6        -258.4507  -192.6157   366.2422 H6            1 RES     
   18484 H6        -259.8547  -193.2649   365.4135 H6            1 RES     
   18485 H6        -259.4867  -195.6041   366.4088 H6            1 RES     
   18486 H6        -257.9120  -194.9600   366.9655 H6            1 RES     
   18487 H6        -257.4499  -194.4554   364.4130 H6            1 RES     
   18488 H6        -258.9590  -195.2378   364.0101 H6            1 RES     
   18489 H6        -256.9843  -196.7565   363.6471 H6            1 RES     
   18490 H6        -258.1693  -197.4564   364.7802 H6            1 RES     
   18491 H6        -256.8501  -196.8795   366.6990 H6            1 RES     
   18492 H6        -255.8568  -197.8636   365.6389 H6            1 RES     
   18493 H6        -255.5552  -194.8454   365.2018 H6            1 RES     
   18494 H6        -255.1631  -195.4156   366.8243 H6            1 RES     
   18495 H6        -253.4522  -196.9284   366.0218 H6            1 RES     
   18496 H6        -253.1950  -195.2458   365.4354 H6            1 RES     
   18497 H6        -254.1081  -195.8951   363.1810 H6            1 RES     
   18498 H6        -252.6605  -196.8534   363.6747 H6            1 RES     
   18499 H6        -254.2942  -197.6005   363.7745 H6            1 RES     
   18500 H6        -260.3435  -190.7935   368.6059 H6            1 RES     
   18501 H6        -258.7955  -191.4709   368.6954 H6            1 RES     
   18502 H6        -258.5575  -192.8429   371.3797 H6            1 RES     
   18503 H6        -259.8466  -192.6131   372.6117 H6            1 RES     
   18504 H6        -260.5830  -193.7305   369.7962 H6            1 RES     
   18505 H6        -262.4451  -194.7206   370.7915 H6            1 RES     
   18506 H6        -261.8665  -194.3368   372.4412 H6            1 RES     
   18507 H6        -263.7886  -192.9979   371.7349 H6            1 RES     
   18508 H6        -262.3600  -191.9971   372.1822 H6            1 RES     
   18509 H6        -261.9960  -191.3686   369.8972 H6            1 RES     
   18510 H6        -263.0516  -192.6425   369.2415 H6            1 RES     
   18511 H6        -263.9569  -190.3513   369.0409 H6            1 RES     
   18512 H6        -264.9598  -191.4296   370.0872 H6            1 RES     
   18513 H6        -263.8501  -190.4280   372.1113 H6            1 RES     
   18514 H6        -262.9667  -189.2530   371.0686 H6            1 RES     
   18515 H6        -265.1894  -188.3123   370.3458 H6            1 RES     
   18516 H6        -266.0278  -189.6704   371.2066 H6            1 RES     
   18517 H6        -264.3460  -187.4928   372.5007 H6            1 RES     
   18518 H6        -265.0127  -188.9475   373.3789 H6            1 RES     
   18519 H6        -266.6037  -186.7342   371.9873 H6            1 RES     
   18520 H6        -266.4138  -187.0187   373.7680 H6            1 RES     
   18521 H6        -267.2994  -188.2288   372.7611 H6            1 RES     
   18522 H6        -259.5934  -195.5364   371.9779 H6            1 RES     
   18523 H6        -258.6731  -194.9409   370.5637 H6            1 RES     
   18524 H6        -260.0015  -196.1263   368.9309 H6            1 RES     
   18525 H6        -259.1694  -197.1237   370.1020 H6            1 RES     
   18526 H6        -262.2243  -196.8311   369.9481 H6            1 RES     
   18527 H6        -261.1680  -198.1999   369.5064 H6            1 RES     
   18528 H6        -261.6214  -197.0374   372.2944 H6            1 RES     
   18529 H6        -260.3535  -198.2855   371.9389 H6            1 RES     
   18530 H6        -262.0053  -199.9601   371.3109 H6            1 RES     
   18531 H6        -263.3347  -198.7549   371.3336 H6            1 RES     
   18532 H6        -263.4587  -200.0979   373.3869 H6            1 RES     
   18533 H6        -263.1402  -198.3734   373.7068 H6            1 RES     
   18534 H6        -261.8187  -199.6476   375.2556 H6            1 RES     
   18535 H6        -260.7244  -198.8386   374.1255 H6            1 RES     
   18536 H6        -260.3996  -200.9870   372.8644 H6            1 RES     
   18537 H6        -259.9280  -201.0963   374.5902 H6            1 RES     
   18538 H6        -262.5391  -202.2084   373.3629 H6            1 RES     
   18539 H6        -261.0858  -203.1354   373.8552 H6            1 RES     
   18540 H6        -261.4142  -202.4329   376.2400 H6            1 RES     
   18541 H6        -262.9190  -201.5428   375.7651 H6            1 RES     
   18542 H6        -262.8364  -203.3216   375.5755 H6            1 RES     
   18543 C0        -258.7216  -180.9861   382.8606 C0            1 RES     
   18544 C0        -260.3530  -181.7637   382.4666 C0            1 RES     
   18545 C0        -260.4561  -182.9627   383.1604 C0            1 RES     
   18546 S1        -261.7498  -183.9935   382.6962 S1            1 RES     
   18547 C0        -262.4870  -183.1421   381.4768 C0            1 RES     
   18548 C0        -261.5997  -181.8645   381.4705 C0            1 RES     
   18549 C0        -259.1712  -183.3982   383.7092 C0            1 RES     
   18550 C0        -258.3274  -182.4927   382.8267 C0            1 RES     
   18551 C0        -257.9052  -183.1487   381.7116 C0            1 RES     
   18552 C0        -258.1705  -184.5157   381.6844 C0            1 RES     
   18553 S1        -258.9272  -185.1355   383.1622 S1            1 RES     
   18554 H2        -261.7956  -181.1465   380.6832 H2            1 RES     
   18555 H2        -257.5795  -182.6474   380.8149 H2            1 RES     
   18556 N3        -264.8218  -186.2330   380.5028 N3            1 RES     
   18557 C0        -263.8710  -185.4161   380.9813 C0            1 RES     
   18558 C0        -263.7649  -183.9676   380.7304 C0            1 RES     
   18559 C0        -264.8836  -183.5741   379.8483 C0            1 RES     
   18560 N3        -265.1169  -182.3046   379.3871 N3            1 RES     
   18561 S1        -266.5082  -182.4615   378.4844 S1            1 RES     
   18562 N3        -266.8707  -184.0701   378.5901 N3            1 RES     
   18563 C0        -265.8843  -184.5312   379.3707 C0            1 RES     
   18564 C0        -265.8531  -185.8658   379.6934 C0            1 RES     
   18565 H4        -263.1484  -185.9212   381.5829 H4            1 RES     
   18566 C5        -245.7336  -174.3733   395.6589 C5            1 RES     
   18567 C5        -246.9322  -174.7971   394.7632 C5            1 RES     
   18568 C5        -246.8253  -174.2955   393.2857 C5            1 RES     
   18569 C5        -247.8232  -174.9170   392.1919 C5            1 RES     
   18570 C5        -249.3590  -174.5099   392.1476 C5            1 RES     
   18571 C5        -250.4845  -175.2984   391.2051 C5            1 RES     
   18572 C5        -250.7110  -175.1748   389.5719 C5            1 RES     
   18573 C5        -252.0783  -175.6768   388.5929 C5            1 RES     
   18574 C5        -252.5128  -177.1331   387.8181 C5            1 RES     
   18575 C5        -253.8835  -177.8439   386.8908 C5            1 RES     
   18576 C5        -254.4890  -177.9260   385.2171 C5            1 RES     
   18577 C5        -253.8222  -176.5277   384.6939 C5            1 RES     
   18578 C5        -254.1016  -175.1490   385.4489 C5            1 RES     
   18579 C5        -253.0320  -173.9968   385.2109 C5            1 RES     
   18580 C5        -253.3970  -172.5826   385.8051 C5            1 RES     
   18581 C5        -254.7989  -172.0751   385.4025 C5            1 RES     
   18582 C5        -255.0543  -172.0607   383.8758 C5            1 RES     
   18583 C5        -255.2170  -170.6797   383.2302 C5            1 RES     
   18584 C5        -254.0067  -169.7629   383.3703 C5            1 RES     
   18585 C5        -255.7983  -178.9245   384.1263 C5            1 RES     
   18586 C0        -257.4940  -179.8943   384.0014 C0            1 RES     
   18587 C5        -258.3465  -179.1121   385.0331 C5            1 RES     
   18588 C5        -257.6120  -178.6864   386.3950 C5            1 RES     
   18589 C5        -257.6184  -179.7944   387.4621 C5            1 RES     
   18590 C5        -257.1338  -181.1993   387.0357 C5            1 RES     
   18591 C5        -255.7392  -181.2619   386.3753 C5            1 RES     
   18592 C5        -255.1431  -182.6602   386.2779 C5            1 RES     
   18593 C5        -256.0796  -183.6447   385.5765 C5            1 RES     
   18594 C5        -255.5612  -185.0718   385.7213 C5            1 RES     
   18595 C5        -256.6548  -186.0470   385.3071 C5            1 RES     
   18596 C5        -256.3019  -187.4848   385.6118 C5            1 RES     
   18597 C5        -258.1584  -177.3194   386.9313 C5            1 RES     
   18598 C5        -257.3582  -176.4384   387.9657 C5            1 RES     
   18599 C5        -257.2539  -176.7924   389.4743 C5            1 RES     
   18600 C5        -258.6290  -177.0179   390.1160 C5            1 RES     
   18601 C5        -258.5955  -177.0578   391.6605 C5            1 RES     
   18602 C5        -259.8970  -177.6476   392.2473 C5            1 RES     
   18603 C5        -261.2054  -176.9330   391.8490 C5            1 RES     
   18604 C5        -261.3745  -175.5055   392.4018 C5            1 RES     
   18605 C5        -261.4073  -175.4043   393.9397 C5            1 RES     
   18606 C5        -262.5460  -176.2046   394.5782 C5            1 RES     
   18607 H6        -244.7693  -174.7743   395.2712 H6            1 RES     
   18608 H6        -245.6390  -173.2705   395.7535 H6            1 RES     
   18609 H6        -245.8511  -174.7850   396.6901 H6            1 RES     
   18610 H6        -246.9371  -175.9071   394.7730 H6            1 RES     
   18611 H6        -247.8658  -174.4256   395.2319 H6            1 RES     
   18612 H6        -246.8258  -173.1820   393.2787 H6            1 RES     
   18613 H6        -245.7989  -174.6045   392.9743 H6            1 RES     
   18614 H6        -247.7431  -176.0151   392.3085 H6            1 RES     
   18615 H6        -247.3982  -174.6327   391.2084 H6            1 RES     
   18616 H6        -249.4095  -173.4055   391.9979 H6            1 RES     
   18617 H6        -249.6788  -174.6674   393.2055 H6            1 RES     
   18618 H6        -251.4294  -174.9003   391.6371 H6            1 RES     
   18619 H6        -250.4128  -176.3628   391.4875 H6            1 RES     
   18620 H6        -250.7239  -174.0590   389.4935 H6            1 RES     
   18621 H6        -249.7601  -175.4704   389.0828 H6            1 RES     
   18622 H6        -251.9606  -174.9469   387.7652 H6            1 RES     
   18623 H6        -252.9342  -175.2981   389.1918 H6            1 RES     
   18624 H6        -251.5964  -177.3967   387.2509 H6            1 RES     
   18625 H6        -252.5092  -177.7692   388.7266 H6            1 RES     
   18626 H6        -254.7370  -177.5891   387.5264 H6            1 RES     
   18627 H6        -253.6759  -178.9039   387.0878 H6            1 RES     
   18628 H6        -253.6582  -178.5479   384.8146 H6            1 RES     
   18629 H6        -253.8886  -176.3961   383.5953 H6            1 RES     
   18630 H6        -252.7220  -176.6427   384.8828 H6            1 RES     
   18631 H6        -254.1207  -175.2772   386.5493 H6            1 RES     
   18632 H6        -255.0977  -174.8114   385.1235 H6            1 RES     
   18633 H6        -252.8314  -173.8810   384.1327 H6            1 RES     
   18634 H6        -252.0403  -174.2709   385.6407 H6            1 RES     
   18635 H6        -252.6340  -171.8291   385.4924 H6            1 RES     
   18636 H6        -253.3630  -172.6111   386.9189 H6            1 RES     
   18637 H6        -255.5161  -172.7754   385.8739 H6            1 RES     
   18638 H6        -255.0381  -171.0871   385.8594 H6            1 RES     
   18639 H6        -254.2909  -172.6279   383.3179 H6            1 RES     
   18640 H6        -256.0125  -172.5929   383.7002 H6            1 RES     
   18641 H6        -256.1062  -170.1743   383.6619 H6            1 RES     
   18642 H6        -255.4051  -170.8471   382.1463 H6            1 RES     
   18643 H6        -253.0974  -170.2368   382.9465 H6            1 RES     
   18644 H6        -254.2107  -168.8225   382.8129 H6            1 RES     
   18645 H6        -253.8338  -169.5036   384.4349 H6            1 RES     
   18646 H6        -255.1244  -179.7053   383.7053 H6            1 RES     
   18647 H6        -255.8584  -178.2520   383.2446 H6            1 RES     
   18648 H6        -258.6249  -178.2039   384.4649 H6            1 RES     
   18649 H6        -259.2691  -179.6806   385.2627 H6            1 RES     
   18650 H6        -256.5766  -178.4487   386.2376 H6            1 RES     
   18651 H6        -256.9811  -179.4599   388.2997 H6            1 RES     
   18652 H6        -258.6516  -179.9100   387.8408 H6            1 RES     
   18653 H6        -257.1167  -181.8115   387.9613 H6            1 RES     
   18654 H6        -257.8876  -181.6307   386.3441 H6            1 RES     
   18655 H6        -255.8146  -180.9436   385.3543 H6            1 RES     
   18656 H6        -255.0249  -180.6206   386.9160 H6            1 RES     
   18657 H6        -254.1756  -182.6135   385.7260 H6            1 RES     
   18658 H6        -254.9457  -183.0004   387.3135 H6            1 RES     
   18659 H6        -257.0580  -183.6147   386.0919 H6            1 RES     
   18660 H6        -256.2343  -183.3719   384.5074 H6            1 RES     
   18661 H6        -254.6368  -185.2212   385.1206 H6            1 RES     
   18662 H6        -255.3361  -185.2511   386.7934 H6            1 RES     
   18663 H6        -256.8024  -185.9503   384.2232 H6            1 RES     
   18664 H6        -257.5932  -185.8081   385.8622 H6            1 RES     
   18665 H6        -255.4129  -187.7851   385.0228 H6            1 RES     
   18666 H6        -257.1660  -188.1266   385.3359 H6            1 RES     
   18667 H6        -256.1031  -187.5992   386.6978 H6            1 RES     
   18668 H6        -259.2112  -177.4290   387.2473 H6            1 RES     
   18669 H6        -258.1444  -176.6591   386.0346 H6            1 RES     
   18670 H6        -256.3429  -176.2213   387.5833 H6            1 RES     
   18671 H6        -257.8683  -175.4506   387.9548 H6            1 RES     
   18672 H6        -256.5968  -177.6673   389.6610 H6            1 RES     
   18673 H6        -256.7693  -175.9190   389.9746 H6            1 RES     
   18674 H6        -259.0068  -177.9826   389.7207 H6            1 RES     
   18675 H6        -259.3159  -176.1976   389.8182 H6            1 RES     
   18676 H6        -258.3998  -176.0391   392.0681 H6            1 RES     
   18677 H6        -257.7681  -177.7175   392.0018 H6            1 RES     
   18678 H6        -259.8193  -177.7045   393.3536 H6            1 RES     
   18679 H6        -259.9699  -178.6932   391.8780 H6            1 RES     
   18680 H6        -262.0591  -177.5512   392.1942 H6            1 RES     
   18681 H6        -261.2843  -176.9011   390.7429 H6            1 RES     
   18682 H6        -260.5572  -174.8607   392.0156 H6            1 RES     
   18683 H6        -262.3336  -175.1003   392.0092 H6            1 RES     
   18684 H6        -260.4394  -175.7338   394.3697 H6            1 RES     
   18685 H6        -261.5487  -174.3348   394.2085 H6            1 RES     
   18686 H6        -263.5274  -175.8749   394.1753 H6            1 RES     
   18687 H6        -262.4213  -177.2922   394.3996 H6            1 RES     
   18688 H6        -262.5417  -176.0427   395.6767 H6            1 RES     
   18689 C0        -267.3879  -190.0041   376.9559 C0            1 RES     
   18690 C0        -266.5607  -190.4840   378.5392 C0            1 RES     
   18691 C0        -267.3434  -190.0506   379.6018 C0            1 RES     
   18692 S1        -266.6094  -190.1140   381.1539 S1            1 RES     
   18693 C0        -265.0951  -190.7099   380.8271 C0            1 RES     
   18694 C0        -265.2136  -190.9083   379.2888 C0            1 RES     
   18695 C0        -268.3715  -189.0978   379.1811 C0            1 RES     
   18696 C0        -267.7219  -188.7705   377.8464 C0            1 RES     
   18697 C0        -266.9411  -187.6598   377.9397 C0            1 RES     
   18698 C0        -267.0260  -186.9676   379.1453 C0            1 RES     
   18699 S1        -268.2132  -187.6335   380.2800 S1            1 RES     
   18700 H2        -264.3103  -191.2079   378.7713 H2            1 RES     
   18701 H2        -266.1545  -187.4260   377.2410 H2            1 RES     
   18702 N3        -263.8285  -189.9971   384.5475 N3            1 RES     
   18703 C0        -264.4858  -190.0382   383.3784 C0            1 RES     
   18704 C0        -264.0756  -190.7890   382.1784 C0            1 RES     
   18705 C0        -262.8053  -191.4797   382.4844 C0            1 RES     
   18706 N3        -262.1071  -192.2726   381.6110 N3            1 RES     
   18707 S1        -260.8031  -192.7945   382.5070 S1            1 RES     
   18708 N3        -261.0123  -192.0647   383.9746 N3            1 RES     
   18709 C0        -262.1520  -191.3845   383.7920 C0            1 RES     
   18710 C0        -262.6603  -190.6381   384.8267 C0            1 RES     
   18711 H4        -265.3732  -189.4451   383.3756 H4            1 RES     
   18712 C5        -282.8244  -189.9832   365.2116 C5            1 RES     
   18713 C5        -281.6353  -190.2073   366.1885 C5            1 RES     
   18714 C5        -280.2350  -189.9109   365.5580 C5            1 RES     
   18715 C5        -278.9640  -189.8005   366.5331 C5            1 RES     
   18716 C5        -278.3165  -191.0913   367.1971 C5            1 RES     
   18717 C5        -277.1646  -191.0179   368.3992 C5            1 RES     
   18718 C5        -275.5588  -190.6536   368.2497 C5            1 RES     
   18719 C5        -274.2446  -190.9132   369.3835 C5            1 RES     
   18720 C5        -273.5929  -190.0069   370.6734 C5            1 RES     
   18721 C5        -272.3564  -190.1557   371.9745 C5            1 RES     
   18722 C5        -270.6091  -189.9058   372.2181 C5            1 RES     
   18723 C5        -270.1544  -190.1421   370.6654 C5            1 RES     
   18724 C5        -270.5457  -191.4801   369.8872 C5            1 RES     
   18725 C5        -270.5340  -191.3899   368.2998 C5            1 RES     
   18726 C5        -270.7412  -192.7501   367.5295 C5            1 RES     
   18727 C5        -269.7956  -193.8817   367.9881 C5            1 RES     
   18728 C5        -268.2941  -193.5072   367.9531 C5            1 RES     
   18729 C5        -267.4342  -194.2549   366.9275 C5            1 RES     
   18730 C5        -267.8566  -194.0581   365.4756 C5            1 RES     
   18731 C5        -269.2865  -189.7711   373.6789 C5            1 RES     
   18732 C0        -268.7135  -190.2719   375.4823 C0            1 RES     
   18733 C5        -269.2457  -191.7260   375.5572 C5            1 RES     
   18734 C5        -270.6997  -191.9907   374.9317 C5            1 RES     
   18735 C5        -271.8476  -191.6853   375.9092 C5            1 RES     
   18736 C5        -271.8363  -190.3105   376.6166 C5            1 RES     
   18737 C5        -271.7321  -189.0763   375.6943 C5            1 RES     
   18738 C5        -272.0629  -187.7499   376.3659 C5            1 RES     
   18739 C5        -271.2301  -187.5116   377.6259 C5            1 RES     
   18740 C5        -271.7612  -186.3086   378.3986 C5            1 RES     
   18741 C5        -271.1362  -186.2886   379.7869 C5            1 RES     
   18742 C5        -271.7575  -185.2504   380.6929 C5            1 RES     
   18743 C5        -270.7960  -193.4239   374.3060 C5            1 RES     
   18744 C5        -271.9032  -193.8117   373.2522 C5            1 RES     
   18745 C5        -273.3851  -194.0683   373.6396 C5            1 RES     
   18746 C5        -273.5222  -195.1004   374.7663 C5            1 RES     
   18747 C5        -274.9652  -195.6170   374.9644 C5            1 RES     
   18748 C5        -275.1322  -196.3485   376.3146 C5            1 RES     
   18749 C5        -274.1930  -197.5487   376.5565 C5            1 RES     
   18750 C5        -274.4296  -198.7682   375.6461 C5            1 RES     
   18751 C5        -275.8217  -199.4169   375.7782 C5            1 RES     
   18752 C5        -276.1259  -199.9230   377.1911 C5            1 RES     
   18753 H6        -282.8692  -188.9290   364.8544 H6            1 RES     
   18754 H6        -282.7805  -190.6498   364.3241 H6            1 RES     
   18755 H6        -283.7956  -190.1805   365.7258 H6            1 RES     
   18756 H6        -281.8085  -189.5131   367.0371 H6            1 RES     
   18757 H6        -281.6804  -191.2515   366.5585 H6            1 RES     
   18758 H6        -280.0619  -190.6122   364.7106 H6            1 RES     
   18759 H6        -280.3587  -188.9002   365.1005 H6            1 RES     
   18760 H6        -279.2642  -189.0946   367.3316 H6            1 RES     
   18761 H6        -278.1651  -189.3300   365.9256 H6            1 RES     
   18762 H6        -277.9953  -191.7687   366.3710 H6            1 RES     
   18763 H6        -279.2024  -191.5972   367.6503 H6            1 RES     
   18764 H6        -277.1680  -192.0732   368.7516 H6            1 RES     
   18765 H6        -277.6098  -190.3996   369.1977 H6            1 RES     
   18766 H6        -275.3150  -191.3387   367.3997 H6            1 RES     
   18767 H6        -275.4896  -189.6381   367.8085 H6            1 RES     
   18768 H6        -273.4136  -190.9912   368.6520 H6            1 RES     
   18769 H6        -274.4363  -191.9564   369.7144 H6            1 RES     
   18770 H6        -273.4346  -189.0066   370.2202 H6            1 RES     
   18771 H6        -274.5275  -189.9347   371.2661 H6            1 RES     
   18772 H6        -272.6014  -191.1325   372.4026 H6            1 RES     
   18773 H6        -272.7704  -189.4161   372.6725 H6            1 RES     
   18774 H6        -270.6259  -188.7979   372.1122 H6            1 RES     
   18775 H6        -269.0974  -189.8690   370.4732 H6            1 RES     
   18776 H6        -270.7369  -189.3865   370.0746 H6            1 RES     
   18777 H6        -271.5734  -191.8145   370.1316 H6            1 RES     
   18778 H6        -269.8409  -192.2554   370.2257 H6            1 RES     
   18779 H6        -269.5931  -190.9318   367.9520 H6            1 RES     
   18780 H6        -271.3239  -190.6960   367.9286 H6            1 RES     
   18781 H6        -270.6112  -192.5903   366.4317 H6            1 RES     
   18782 H6        -271.7852  -193.1161   367.6659 H6            1 RES     
   18783 H6        -270.0804  -194.1019   369.0357 H6            1 RES     
   18784 H6        -269.9845  -194.8364   367.4450 H6            1 RES     
   18785 H6        -268.1354  -192.4231   367.8296 H6            1 RES     
   18786 H6        -267.8710  -193.7618   368.9474 H6            1 RES     
   18787 H6        -267.4409  -195.3398   367.1627 H6            1 RES     
   18788 H6        -266.3922  -193.8814   367.0420 H6            1 RES     
   18789 H6        -267.8594  -192.9821   365.2045 H6            1 RES     
   18790 H6        -267.1291  -194.5878   364.8221 H6            1 RES     
   18791 H6        -268.8615  -194.4929   365.2984 H6            1 RES     
   18792 H6        -269.2543  -188.6634   373.7916 H6            1 RES     
   18793 H6        -268.3511  -189.9147   373.0978 H6            1 RES     
   18794 H6        -268.4867  -192.2822   374.9743 H6            1 RES     
   18795 H6        -269.2146  -192.0814   376.6059 H6            1 RES     
   18796 H6        -270.8869  -191.3756   374.0716 H6            1 RES     
   18797 H6        -272.7969  -191.7672   375.3509 H6            1 RES     
   18798 H6        -271.8471  -192.4569   376.7022 H6            1 RES     
   18799 H6        -272.7880  -190.2506   377.1846 H6            1 RES     
   18800 H6        -270.9948  -190.3004   377.3407 H6            1 RES     
   18801 H6        -270.7156  -188.9556   375.3754 H6            1 RES     
   18802 H6        -272.3890  -189.1909   374.8173 H6            1 RES     
   18803 H6        -271.8906  -186.9162   375.6460 H6            1 RES     
   18804 H6        -273.1395  -187.7787   376.6256 H6            1 RES     
   18805 H6        -271.3535  -188.3878   378.2900 H6            1 RES     
   18806 H6        -270.1479  -187.3988   377.3863 H6            1 RES     
   18807 H6        -271.5578  -185.3628   377.8495 H6            1 RES     
   18808 H6        -272.8572  -186.4335   378.5227 H6            1 RES     
   18809 H6        -270.0691  -186.0543   379.6749 H6            1 RES     
   18810 H6        -271.2791  -187.2839   380.2715 H6            1 RES     
   18811 H6        -271.5749  -184.2378   380.2825 H6            1 RES     
   18812 H6        -271.2919  -185.3348   381.6982 H6            1 RES     
   18813 H6        -272.8474  -185.4393   380.7861 H6            1 RES     
   18814 H6        -270.7298  -194.1898   375.0992 H6            1 RES     
   18815 H6        -269.8749  -193.5037   373.6851 H6            1 RES     
   18816 H6        -271.8787  -193.1151   372.3931 H6            1 RES     
   18817 H6        -271.5642  -194.7804   372.8248 H6            1 RES     
   18818 H6        -273.9217  -193.1348   373.9090 H6            1 RES     
   18819 H6        -273.8885  -194.4717   372.7276 H6            1 RES     
   18820 H6        -273.1674  -194.6046   375.6927 H6            1 RES     
   18821 H6        -272.8807  -195.9793   374.5439 H6            1 RES     
   18822 H6        -275.2586  -196.2758   374.1146 H6            1 RES     
   18823 H6        -275.6727  -194.7595   374.9804 H6            1 RES     
   18824 H6        -276.1892  -196.6639   376.4436 H6            1 RES     
   18825 H6        -274.9218  -195.6028   377.1112 H6            1 RES     
   18826 H6        -274.3004  -197.8679   377.6131 H6            1 RES     
   18827 H6        -273.1395  -197.2184   376.4472 H6            1 RES     
   18828 H6        -274.2673  -198.4757   374.5874 H6            1 RES     
   18829 H6        -273.6659  -199.5363   375.9013 H6            1 RES     
   18830 H6        -276.6117  -198.7042   375.4644 H6            1 RES     
   18831 H6        -275.8597  -200.2874   375.0878 H6            1 RES     
   18832 H6        -275.3560  -200.6548   377.5168 H6            1 RES     
   18833 H6        -276.1679  -199.0854   377.9170 H6            1 RES     
   18834 H6        -277.1167  -200.4240   377.1996 H6            1 RES     
   18835 C0        -260.2074  -188.0719   388.6179 C0            1 RES     
   18836 C0        -262.0340  -187.7822   388.6492 C0            1 RES     
   18837 C0        -262.6715  -188.9795   388.9486 C0            1 RES     
   18838 S1        -264.3740  -189.0052   388.7188 S1            1 RES     
   18839 C0        -264.6997  -187.4741   388.1666 C0            1 RES     
   18840 C0        -263.2679  -186.8674   388.2049 C0            1 RES     
   18841 C0        -261.7756  -190.1303   388.8280 C0            1 RES     
   18842 C0        -260.7260  -189.4051   388.0014 C0            1 RES     
   18843 C0        -260.9236  -189.6072   386.6703 C0            1 RES     
   18844 C0        -261.9023  -190.5433   386.3454 C0            1 RES     
   18845 S1        -262.6269  -191.3489   387.7477 S1            1 RES     
   18846 H2        -263.1561  -185.8714   387.7935 H2            1 RES     
   18847 H2        -260.5236  -188.9618   385.9055 H2            1 RES     
   18848 N3        -268.4761  -188.4189   387.2722 N3            1 RES     
   18849 C0        -267.1699  -188.4148   387.5795 C0            1 RES     
   18850 C0        -266.3207  -187.2213   387.7422 C0            1 RES     
   18851 C0        -267.1577  -186.0285   387.4951 C0            1 RES     
   18852 N3        -266.7185  -184.7310   387.5462 N3            1 RES     
   18853 S1        -268.0866  -183.8376   387.2214 S1            1 RES     
   18854 N3        -269.2573  -184.9782   386.9793 N3            1 RES     
   18855 C0        -268.5821  -186.1202   387.1662 C0            1 RES     
   18856 C0        -269.2446  -187.3175   387.0491 C0            1 RES     
   18857 H4        -266.7633  -189.3950   387.6938 H4            1 RES     
   18858 C5        -243.8819  -194.3426   397.0064 C5            1 RES     
   18859 C5        -245.2393  -193.7455   396.5383 C5            1 RES     
   18860 C5        -245.1110  -192.7450   395.3430 C5            1 RES     
   18861 C5        -246.4459  -192.3025   394.5680 C5            1 RES     
   18862 C5        -247.4816  -191.2872   395.2182 C5            1 RES     
   18863 C5        -248.9891  -190.9857   394.5751 C5            1 RES     
   18864 C5        -249.3675  -190.0636   393.2559 C5            1 RES     
   18865 C5        -250.9194  -189.4158   392.7542 C5            1 RES     
   18866 C5        -252.2058  -190.0145   391.8072 C5            1 RES     
   18867 C5        -253.8680  -189.5510   391.2913 C5            1 RES     
   18868 C5        -254.6764  -188.6036   390.0170 C5            1 RES     
   18869 C5        -253.4407  -187.5758   389.7168 C5            1 RES     
   18870 C5        -252.7836  -186.7135   390.8888 C5            1 RES     
   18871 C5        -251.3095  -186.1821   390.6185 C5            1 RES     
   18872 C5        -250.7284  -185.1828   391.6909 C5            1 RES     
   18873 C5        -251.6568  -183.9892   392.0049 C5            1 RES     
   18874 C5        -252.1021  -183.1867   390.7585 C5            1 RES     
   18875 C5        -251.5731  -181.7516   390.6534 C5            1 RES     
   18876 C5        -250.0540  -181.6338   390.5954 C5            1 RES     
   18877 C5        -256.4741  -188.3187   389.2501 C5            1 RES     
   18878 C0        -258.4167  -188.2701   389.4864 C0            1 RES     
   18879 C5        -258.5139  -187.7425   390.9408 C5            1 RES     
   18880 C5        -257.4596  -188.3405   391.9927 C5            1 RES     
   18881 C5        -257.9080  -189.6755   392.6119 C5            1 RES     
   18882 C5        -258.3592  -190.7949   391.6456 C5            1 RES     
   18883 C5        -257.3608  -191.1661   390.5274 C5            1 RES     
   18884 C5        -257.6647  -192.4758   389.8116 C5            1 RES     
   18885 C5        -259.0877  -192.5178   389.2536 C5            1 RES     
   18886 C5        -259.4321  -193.9233   388.7718 C5            1 RES     
   18887 C5        -260.9322  -194.0162   388.5280 C5            1 RES     
   18888 C5        -261.3921  -195.4281   388.2453 C5            1 RES     
   18889 C5        -257.0622  -187.2721   393.0676 C5            1 RES     
   18890 C5        -255.7544  -187.3987   393.9396 C5            1 RES     
   18891 C5        -255.6235  -188.3911   395.1270 C5            1 RES     
   18892 C5        -256.7686  -188.2448   396.1373 C5            1 RES     
   18893 C5        -256.5158  -188.9771   397.4744 C5            1 RES     
   18894 C5        -257.8115  -189.1228   398.3026 C5            1 RES     
   18895 C5        -258.5479  -187.8110   398.6462 C5            1 RES     
   18896 C5        -257.8061  -186.8695   399.6132 C5            1 RES     
   18897 C5        -257.5302  -187.4595   401.0104 C5            1 RES     
   18898 C5        -258.8014  -187.8642   401.7621 C5            1 RES     
   18899 H6        -243.3788  -194.9087   396.1895 H6            1 RES     
   18900 H6        -243.1782  -193.5670   397.3769 H6            1 RES     
   18901 H6        -244.0406  -195.0698   397.8386 H6            1 RES     
   18902 H6        -245.8570  -194.6126   396.2245 H6            1 RES     
   18903 H6        -245.7208  -193.2518   397.4066 H6            1 RES     
   18904 H6        -244.4953  -191.8739   395.6623 H6            1 RES     
   18905 H6        -244.4939  -193.3008   394.5971 H6            1 RES     
   18906 H6        -246.9704  -193.2456   394.3202 H6            1 RES     
   18907 H6        -246.0989  -191.8316   393.6264 H6            1 RES     
   18908 H6        -246.9348  -190.3377   395.4276 H6            1 RES     
   18909 H6        -247.6605  -191.7389   396.2233 H6            1 RES     
   18910 H6        -249.4708  -190.4502   395.4231 H6            1 RES     
   18911 H6        -249.4753  -191.9725   394.4864 H6            1 RES     
   18912 H6        -248.7722  -189.1534   393.5176 H6            1 RES     
   18913 H6        -248.8332  -190.4965   392.3854 H6            1 RES     
   18914 H6        -250.5515  -188.5311   392.1943 H6            1 RES     
   18915 H6        -251.3125  -189.0088   393.7105 H6            1 RES     
   18916 H6        -251.6945  -190.3725   390.8900 H6            1 RES     
   18917 H6        -252.4097  -190.9156   392.4207 H6            1 RES     
   18918 H6        -254.3219  -189.2579   392.2429 H6            1 RES     
   18919 H6        -254.2544  -190.5564   391.0781 H6            1 RES     
   18920 H6        -254.4071  -189.2763   389.1721 H6            1 RES     
   18921 H6        -253.5981  -186.9557   388.8117 H6            1 RES     
   18922 H6        -252.5756  -188.2353   389.4412 H6            1 RES     
   18923 H6        -252.6938  -187.2940   391.8283 H6            1 RES     
   18924 H6        -253.4622  -185.8657   391.0706 H6            1 RES     
   18925 H6        -251.2545  -185.7012   389.6276 H6            1 RES     
   18926 H6        -250.5826  -187.0248   390.5489 H6            1 RES     
   18927 H6        -249.7378  -184.7936   391.3522 H6            1 RES     
   18928 H6        -250.5379  -185.7151   392.6517 H6            1 RES     
   18929 H6        -252.5550  -184.4277   392.4822 H6            1 RES     
   18930 H6        -251.2311  -183.3167   392.7851 H6            1 RES     
   18931 H6        -251.8825  -183.7179   389.8176 H6            1 RES     
   18932 H6        -253.2079  -183.1002   390.8041 H6            1 RES     
   18933 H6        -251.9499  -181.1568   391.5117 H6            1 RES     
   18934 H6        -251.9933  -181.3172   389.7191 H6            1 RES     
   18935 H6        -249.6420  -182.2164   389.7457 H6            1 RES     
   18936 H6        -249.7887  -180.5631   390.4545 H6            1 RES     
   18937 H6        -249.5983  -181.9813   391.5451 H6            1 RES     
   18938 H6        -256.4241  -189.0377   388.4008 H6            1 RES     
   18939 H6        -256.2919  -187.3762   388.6919 H6            1 RES     
   18940 H6        -258.3290  -186.6592   390.8087 H6            1 RES     
   18941 H6        -259.5457  -187.8802   391.3197 H6            1 RES     
   18942 H6        -256.5075  -188.5426   391.5390 H6            1 RES     
   18943 H6        -257.0677  -190.0685   393.2111 H6            1 RES     
   18944 H6        -258.7551  -189.4776   393.2955 H6            1 RES     
   18945 H6        -258.5361  -191.6909   392.2762 H6            1 RES     
   18946 H6        -259.3249  -190.4908   391.1899 H6            1 RES     
   18947 H6        -257.4097  -190.4310   389.7486 H6            1 RES     
   18948 H6        -256.3352  -191.2221   390.9261 H6            1 RES     
   18949 H6        -256.9371  -192.6215   388.9796 H6            1 RES     
   18950 H6        -257.5259  -193.2884   390.5517 H6            1 RES     
   18951 H6        -259.7875  -192.2913   390.0800 H6            1 RES     
   18952 H6        -259.2343  -191.7617   388.4485 H6            1 RES     
   18953 H6        -258.8563  -194.1810   387.8554 H6            1 RES     
   18954 H6        -259.1757  -194.6389   389.5807 H6            1 RES     
   18955 H6        -261.1730  -193.3940   387.6556 H6            1 RES     
   18956 H6        -261.4772  -193.6623   389.4354 H6            1 RES     
   18957 H6        -260.9270  -195.7929   387.3084 H6            1 RES     
   18958 H6        -262.4978  -195.4241   388.1356 H6            1 RES     
   18959 H6        -261.1190  -196.0878   389.0952 H6            1 RES     
   18960 H6        -257.9321  -187.0330   393.7051 H6            1 RES     
   18961 H6        -256.8286  -186.3652   392.4651 H6            1 RES     
   18962 H6        -254.8662  -187.5079   393.2889 H6            1 RES     
   18963 H6        -255.6253  -186.3987   394.4080 H6            1 RES     
   18964 H6        -255.5419  -189.4462   394.7920 H6            1 RES     
   18965 H6        -254.6634  -188.1469   395.6431 H6            1 RES     
   18966 H6        -257.6754  -188.6541   395.6473 H6            1 RES     
   18967 H6        -256.9228  -187.1697   396.3696 H6            1 RES     
   18968 H6        -255.7259  -188.4508   398.0586 H6            1 RES     
   18969 H6        -256.1509  -190.0083   397.2752 H6            1 RES     
   18970 H6        -257.6021  -189.6931   399.2321 H6            1 RES     
   18971 H6        -258.5099  -189.7413   397.6986 H6            1 RES     
   18972 H6        -259.5324  -188.0691   399.0868 H6            1 RES     
   18973 H6        -258.7721  -187.2596   397.7099 H6            1 RES     
   18974 H6        -256.8432  -186.5562   399.1577 H6            1 RES     
   18975 H6        -258.4278  -185.9556   399.7418 H6            1 RES     
   18976 H6        -256.8533  -188.3350   400.9336 H6            1 RES     
   18977 H6        -257.0097  -186.6831   401.6122 H6            1 RES     
   18978 H6        -259.4848  -186.9948   401.8678 H6            1 RES     
   18979 H6        -259.3311  -188.6875   401.2406 H6            1 RES     
   18980 H6        -258.5319  -188.2281   402.7759 H6            1 RES     
   18981 C0        -273.2310  -188.6482   383.9973 C0            1 RES     
   18982 C0        -272.5675  -190.0912   384.9453 C0            1 RES     
   18983 C0        -272.7961  -189.8800   386.2991 C0            1 RES     
   18984 S1        -271.9828  -190.9434   387.3760 S1            1 RES     
   18985 C0        -271.1287  -191.9315   386.3515 C0            1 RES     
   18986 C0        -271.5822  -191.3500   384.9818 C0            1 RES     
   18987 C0        -273.1751  -188.4964   386.5885 C0            1 RES     
   18988 C0        -272.6771  -187.9350   385.2666 C0            1 RES     
   18989 C0        -271.4088  -187.4557   385.3833 C0            1 RES     
   18990 C0        -270.9012  -187.4145   386.6797 C0            1 RES     
   18991 S1        -272.0579  -187.9136   387.9260 S1            1 RES     
   18992 H2        -271.0935  -191.7525   384.1026 H2            1 RES     
   18993 H2        -270.7489  -187.3104   384.5438 H2            1 RES     
   18994 N3        -269.1026  -193.5888   389.3683 N3            1 RES     
   18995 C0        -269.8496  -192.8110   388.5700 C0            1 RES     
   18996 C0        -270.1232  -193.0440   387.1407 C0            1 RES     
   18997 C0        -269.4195  -194.2793   386.7369 C0            1 RES     
   18998 N3        -269.4288  -194.8175   385.4762 N3            1 RES     
   18999 S1        -268.5094  -196.1983   385.6292 S1            1 RES     
   19000 N3        -268.0404  -196.1894   387.2135 N3            1 RES     
   19001 C0        -268.6235  -195.0748   387.6745 C0            1 RES     
   19002 C0        -268.4589  -194.7284   388.9932 C0            1 RES     
   19003 H4        -270.2461  -191.9556   389.0704 H4            1 RES     
   19004 C5        -287.7102  -176.5944   379.3851 C5            1 RES     
   19005 C5        -286.7066  -177.7284   379.7390 C5            1 RES     
   19006 C5        -285.4998  -177.8357   378.7500 C5            1 RES     
   19007 C5        -284.2442  -178.7444   379.1696 C5            1 RES     
   19008 C5        -284.3242  -180.3314   379.1372 C5            1 RES     
   19009 C5        -283.1501  -181.3172   379.7903 C5            1 RES     
   19010 C5        -281.6606  -181.6761   379.1687 C5            1 RES     
   19011 C5        -280.5493  -182.9628   379.6041 C5            1 RES     
   19012 C5        -279.3078  -183.1176   380.7637 C5            1 RES     
   19013 C5        -278.1717  -184.3580   381.4078 C5            1 RES     
   19014 C5        -276.5671  -185.0432   381.0467 C5            1 RES     
   19015 C5        -276.5757  -184.7380   379.4403 C5            1 RES     
   19016 C5        -277.7618  -185.2622   378.5089 C5            1 RES     
   19017 C5        -277.9568  -184.4915   377.1318 C5            1 RES     
   19018 C5        -279.0035  -185.1177   376.1325 C5            1 RES     
   19019 C5        -278.7849  -186.6211   375.8549 C5            1 RES     
   19020 C5        -277.3566  -186.9768   375.3759 C5            1 RES     
   19021 C5        -277.2332  -187.4834   373.9342 C5            1 RES     
   19022 C5        -277.7019  -186.4982   372.8690 C5            1 RES     
   19023 C5        -275.1780  -186.1716   381.8823 C5            1 RES     
   19024 C0        -274.6984  -187.6165   383.1126 C0            1 RES     
   19025 C5        -275.9270  -188.5480   382.9514 C5            1 RES     
   19026 C5        -277.3616  -187.8341   382.8627 C5            1 RES     
   19027 C5        -277.9731  -187.5235   384.2398 C5            1 RES     
   19028 C5        -277.0884  -186.7715   385.2607 C5            1 RES     
   19029 C5        -276.4670  -185.4457   384.7697 C5            1 RES     
   19030 C5        -275.8943  -184.5644   385.8720 C5            1 RES     
   19031 C5        -274.8800  -185.3065   386.7428 C5            1 RES     
   19032 C5        -274.5230  -184.4778   387.9725 C5            1 RES     
   19033 C5        -273.7788  -185.3553   388.9698 C5            1 RES     
   19034 C5        -273.5655  -184.6744   390.3023 C5            1 RES     
   19035 C5        -278.3350  -188.6304   381.9283 C5            1 RES     
   19036 C5        -279.6233  -187.9753   381.2974 C5            1 RES     
   19037 C5        -280.9137  -187.6930   382.1141 C5            1 RES     
   19038 C5        -281.4170  -188.9376   382.8565 C5            1 RES     
   19039 C5        -282.8501  -188.7909   383.4160 C5            1 RES     
   19040 C5        -283.1755  -189.8874   384.4542 C5            1 RES     
   19041 C5        -283.0348  -191.3451   383.9680 C5            1 RES     
   19042 C5        -284.0500  -191.7864   382.8972 C5            1 RES     
   19043 C5        -285.5254  -191.7358   383.3411 C5            1 RES     
   19044 C5        -285.8277  -192.6239   384.5514 C5            1 RES     
   19045 H6        -287.2198  -175.5943   379.3949 H6            1 RES     
   19046 H6        -288.1862  -176.7389   378.3918 H6            1 RES     
   19047 H6        -288.5303  -176.5478   380.1413 H6            1 RES     
   19048 H6        -286.3271  -177.4881   380.7540 H6            1 RES     
   19049 H6        -287.2629  -178.6868   379.7768 H6            1 RES     
   19050 H6        -285.8830  -178.0820   377.7339 H6            1 RES     
   19051 H6        -285.1139  -176.7901   378.6880 H6            1 RES     
   19052 H6        -283.9700  -178.4165   380.1910 H6            1 RES     
   19053 H6        -283.4283  -178.4605   378.4750 H6            1 RES     
   19054 H6        -284.5699  -180.6341   378.0920 H6            1 RES     
   19055 H6        -285.2556  -180.5359   379.7178 H6            1 RES     
   19056 H6        -283.6812  -182.2949   379.7939 H6            1 RES     
   19057 H6        -283.0429  -180.9937   380.8400 H6            1 RES     
   19058 H6        -281.9776  -181.9399   378.1289 H6            1 RES     
   19059 H6        -281.1120  -180.7191   379.0509 H6            1 RES     
   19060 H6        -280.0312  -183.0655   378.6280 H6            1 RES     
   19061 H6        -281.2311  -183.8382   379.6622 H6            1 RES     
   19062 H6        -278.6968  -182.2065   380.5978 H6            1 RES     
   19063 H6        -279.9360  -182.9120   381.6542 H6            1 RES     
   19064 H6        -278.8447  -185.2013   381.5907 H6            1 RES     
   19065 H6        -277.9880  -183.9089   382.3927 H6            1 RES     
   19066 H6        -275.9837  -184.1252   381.2833 H6            1 RES     
   19067 H6        -275.5919  -184.9066   378.9582 H6            1 RES     
   19068 H6        -276.7274  -183.6293   379.3566 H6            1 RES     
   19069 H6        -278.7473  -185.1775   379.0082 H6            1 RES     
   19070 H6        -277.5616  -186.3281   378.3190 H6            1 RES     
   19071 H6        -276.9902  -184.3954   376.6097 H6            1 RES     
   19072 H6        -278.2769  -183.4368   377.3008 H6            1 RES     
   19073 H6        -278.9848  -184.5626   375.1634 H6            1 RES     
   19074 H6        -280.0372  -185.0024   376.5335 H6            1 RES     
   19075 H6        -278.9715  -187.1325   376.8195 H6            1 RES     
   19076 H6        -279.5555  -187.0403   375.1675 H6            1 RES     
   19077 H6        -276.6459  -186.1471   375.5248 H6            1 RES     
   19078 H6        -276.9928  -187.8040   376.0207 H6            1 RES     
   19079 H6        -277.8023  -188.4305   373.8271 H6            1 RES     
   19080 H6        -276.1568  -187.7035   373.7573 H6            1 RES     
   19081 H6        -277.1514  -185.5379   372.9455 H6            1 RES     
   19082 H6        -277.5062  -186.9418   371.8681 H6            1 RES     
   19083 H6        -278.7921  -186.3145   372.9590 H6            1 RES     
   19084 H6        -274.5196  -185.3726   382.2933 H6            1 RES     
   19085 H6        -274.5868  -186.4384   380.9808 H6            1 RES     
   19086 H6        -275.7089  -189.0576   381.9933 H6            1 RES     
   19087 H6        -275.9304  -189.3048   383.7603 H6            1 RES     
   19088 H6        -277.3115  -186.8898   382.3539 H6            1 RES     
   19089 H6        -278.8833  -186.9199   384.0763 H6            1 RES     
   19090 H6        -278.2732  -188.4775   384.7129 H6            1 RES     
   19091 H6        -277.7413  -186.5569   386.1322 H6            1 RES     
   19092 H6        -276.2793  -187.4571   385.5893 H6            1 RES     
   19093 H6        -275.6211  -185.6589   384.1464 H6            1 RES     
   19094 H6        -277.2077  -184.8551   384.2072 H6            1 RES     
   19095 H6        -275.4069  -183.6708   385.4171 H6            1 RES     
   19096 H6        -276.7479  -184.2267   386.4922 H6            1 RES     
   19097 H6        -275.3599  -186.2300   387.1179 H6            1 RES     
   19098 H6        -273.9720  -185.5900   386.1627 H6            1 RES     
   19099 H6        -273.9206  -183.5864   387.6894 H6            1 RES     
   19100 H6        -275.4674  -184.1462   388.4524 H6            1 RES     
   19101 H6        -272.7953  -185.5941   388.5433 H6            1 RES     
   19102 H6        -274.3695  -186.2832   389.1591 H6            1 RES     
   19103 H6        -272.9209  -183.7834   390.1686 H6            1 RES     
   19104 H6        -273.0707  -185.3926   390.9908 H6            1 RES     
   19105 H6        -274.5454  -184.3817   390.7340 H6            1 RES     
   19106 H6        -278.5783  -189.6091   382.3790 H6            1 RES     
   19107 H6        -277.7265  -188.8234   381.0157 H6            1 RES     
   19108 H6        -279.3549  -187.0614   380.7346 H6            1 RES     
   19109 H6        -279.9519  -188.6900   380.5118 H6            1 RES     
   19110 H6        -280.7912  -186.8482   382.8236 H6            1 RES     
   19111 H6        -281.6946  -187.3797   381.3794 H6            1 RES     
   19112 H6        -280.7038  -189.1197   383.6860 H6            1 RES     
   19113 H6        -281.4159  -189.8071   382.1655 H6            1 RES     
   19114 H6        -283.5912  -188.7971   382.5835 H6            1 RES     
   19115 H6        -282.9501  -187.8172   383.9434 H6            1 RES     
   19116 H6        -284.1928  -189.7238   384.8683 H6            1 RES     
   19117 H6        -282.4625  -189.7532   385.2961 H6            1 RES     
   19118 H6        -283.1300  -192.0160   384.8459 H6            1 RES     
   19119 H6        -282.0088  -191.5043   383.5770 H6            1 RES     
   19120 H6        -283.9251  -191.1595   381.9894 H6            1 RES     
   19121 H6        -283.8111  -192.8357   382.6142 H6            1 RES     
   19122 H6        -285.8259  -190.6920   383.5661 H6            1 RES     
   19123 H6        -286.1496  -192.0906   382.4924 H6            1 RES     
   19124 H6        -285.5524  -193.6790   384.3387 H6            1 RES     
   19125 H6        -285.2813  -192.2752   385.4515 H6            1 RES     
   19126 H6        -286.9133  -192.5805   384.7805 H6            1 RES     
   19127 C0        -264.4252  -195.4968   392.1734 C0            1 RES     
   19128 C0        -265.7514  -194.4783   392.9640 C0            1 RES     
   19129 C0        -266.8878  -195.2629   393.1148 C0            1 RES     
   19130 S1        -268.3293  -194.4289   393.5370 S1            1 RES     
   19131 C0        -267.8352  -192.8463   393.6186 C0            1 RES     
   19132 C0        -266.3233  -193.0228   393.2978 C0            1 RES     
   19133 C0        -266.8132  -196.5018   392.3395 C0            1 RES     
   19134 C0        -265.6866  -196.0328   391.4332 C0            1 RES     
   19135 C0        -266.1735  -195.5114   390.2743 C0            1 RES     
   19136 C0        -267.5438  -195.6643   390.0780 C0            1 RES     
   19137 S1        -268.3572  -196.5954   391.3475 S1            1 RES     
   19138 H2        -265.7460  -192.1131   393.1848 H2            1 RES     
   19139 H2        -265.6117  -194.8452   389.6403 H2            1 RES     
   19140 N3        -271.5866  -191.5173   393.9566 N3            1 RES     
   19141 C0        -270.4683  -192.2275   393.7435 C0            1 RES     
   19142 C0        -269.0871  -191.7447   393.9203 C0            1 RES     
   19143 C0        -269.1491  -190.3357   394.3619 C0            1 RES     
   19144 N3        -268.0631  -189.5411   394.6229 N3            1 RES     
   19145 S1        -268.7373  -188.0962   395.1057 S1            1 RES     
   19146 N3        -270.3645  -188.3605   394.9938 N3            1 RES     
   19147 C0        -270.4161  -189.6318   394.5742 C0            1 RES     
   19148 C0        -271.6396  -190.2202   394.3672 C0            1 RES     
   19149 H4        -270.6612  -193.2218   393.4070 H4            1 RES     
   19150 C5        -253.2222  -211.3226   391.6720 C5            1 RES     
   19151 C5        -254.0750  -210.0496   391.9380 C5            1 RES     
   19152 C5        -253.6073  -208.7953   391.1291 C5            1 RES     
   19153 C5        -254.5765  -207.5164   391.0711 C5            1 RES     
   19154 C5        -254.7554  -206.5567   392.3254 C5            1 RES     
   19155 C5        -255.9227  -205.3701   392.4065 C5            1 RES     
   19156 C5        -255.9321  -203.8980   391.6538 C5            1 RES     
   19157 C5        -256.9210  -202.4847   391.9772 C5            1 RES     
   19158 C5        -258.4554  -201.9623   391.4454 C5            1 RES     
   19159 C5        -259.6388  -200.6376   391.7434 C5            1 RES     
   19160 C5        -259.9783  -198.9759   391.1973 C5            1 RES     
   19161 C5        -258.4474  -198.5872   390.7741 C5            1 RES     
   19162 C5        -257.2448  -198.7263   391.8150 C5            1 RES     
   19163 C5        -255.7897  -198.8430   391.1846 C5            1 RES     
   19164 C5        -254.5893  -198.7975   392.2059 C5            1 RES     
   19165 C5        -254.6355  -197.5968   393.1762 C5            1 RES     
   19166 C5        -254.7543  -196.2206   392.4775 C5            1 RES     
   19167 C5        -253.5436  -195.2891   392.6077 C5            1 RES     
   19168 C5        -252.2470  -195.8425   392.0268 C5            1 RES     
   19169 C5        -261.4116  -197.6190   391.2722 C5            1 RES     
   19170 C0        -262.9332  -196.8282   392.2160 C0            1 RES     
   19171 C5        -262.4870  -197.0205   393.6881 C5            1 RES     
   19172 C5        -261.7887  -198.4197   394.0489 C5            1 RES     
   19173 C5        -262.7955  -199.5373   394.3710 C5            1 RES     
   19174 C5        -263.9395  -199.7809   393.3599 C5            1 RES     
   19175 C5        -263.5092  -200.0143   391.8953 C5            1 RES     
   19176 C5        -264.5981  -200.5826   390.9946 C5            1 RES     
   19177 C5        -265.8730  -199.7389   391.0190 C5            1 RES     
   19178 C5        -267.0107  -200.4680   390.3116 C5            1 RES     
   19179 C5        -268.3265  -199.7695   390.6266 C5            1 RES     
   19180 C5        -269.5300  -200.5411   390.1358 C5            1 RES     
   19181 C5        -260.6995  -198.2403   395.1609 C5            1 RES     
   19182 C5        -259.5617  -199.3041   395.4067 C5            1 RES     
   19183 C5        -259.8145  -200.6631   396.1146 C5            1 RES     
   19184 C5        -260.5066  -200.4923   397.4730 C5            1 RES     
   19185 C5        -260.4916  -201.7691   398.3436 C5            1 RES     
   19186 C5        -261.4978  -201.6784   399.5121 C5            1 RES     
   19187 C5        -261.3170  -200.4835   400.4717 C5            1 RES     
   19188 C5        -260.0342  -200.5072   401.3235 C5            1 RES     
   19189 C5        -259.9118  -201.7099   402.2800 C5            1 RES     
   19190 C5        -261.0538  -201.7980   403.2964 C5            1 RES     
   19191 H6        -253.2561  -211.6228   390.5998 H6            1 RES     
   19192 H6        -252.1581  -211.1935   391.9638 H6            1 RES     
   19193 H6        -253.6215  -212.1891   392.2519 H6            1 RES     
   19194 H6        -255.1105  -210.3131   391.6374 H6            1 RES     
   19195 H6        -254.0553  -209.8381   393.0262 H6            1 RES     
   19196 H6        -252.5704  -208.5302   391.4365 H6            1 RES     
   19197 H6        -253.5310  -209.1695   390.0802 H6            1 RES     
   19198 H6        -255.5674  -207.9096   390.7720 H6            1 RES     
   19199 H6        -254.1831  -206.8841   390.2500 H6            1 RES     
   19200 H6        -253.7489  -206.1513   392.5843 H6            1 RES     
   19201 H6        -254.9907  -207.2764   393.1457 H6            1 RES     
   19202 H6        -255.8833  -205.1168   393.4892 H6            1 RES     
   19203 H6        -256.8809  -205.8850   392.2206 H6            1 RES     
   19204 H6        -254.8994  -203.5678   391.9293 H6            1 RES     
   19205 H6        -255.8753  -204.0845   390.5617 H6            1 RES     
   19206 H6        -256.2199  -201.7088   391.6056 H6            1 RES     
   19207 H6        -256.8631  -202.4189   393.0849 H6            1 RES     
   19208 H6        -258.3833  -202.0595   390.3425 H6            1 RES     
   19209 H6        -259.0230  -202.8472   391.7985 H6            1 RES     
   19210 H6        -259.6944  -200.6317   392.8362 H6            1 RES     
   19211 H6        -260.5458  -201.1558   391.4052 H6            1 RES     
   19212 H6        -260.2667  -199.2435   390.1561 H6            1 RES     
   19213 H6        -258.3774  -197.6320   390.2161 H6            1 RES     
   19214 H6        -258.1506  -199.3607   390.0173 H6            1 RES     
   19215 H6        -257.3426  -199.6359   392.4400 H6            1 RES     
   19216 H6        -257.3000  -197.8466   392.4749 H6            1 RES     
   19217 H6        -255.6371  -198.0522   390.4314 H6            1 RES     
   19218 H6        -255.6743  -199.7898   390.6071 H6            1 RES     
   19219 H6        -253.6187  -198.7811   391.6533 H6            1 RES     
   19220 H6        -254.5746  -199.7235   392.8264 H6            1 RES     
   19221 H6        -255.5357  -197.7539   393.8022 H6            1 RES     
   19222 H6        -253.7900  -197.6074   393.9022 H6            1 RES     
   19223 H6        -255.0203  -196.3135   391.4115 H6            1 RES     
   19224 H6        -255.6021  -195.6851   392.9536 H6            1 RES     
   19225 H6        -253.3841  -195.0407   393.6779 H6            1 RES     
   19226 H6        -253.7959  -194.3497   392.0672 H6            1 RES     
   19227 H6        -252.3697  -196.1008   390.9548 H6            1 RES     
   19228 H6        -251.4593  -195.0626   392.1170 H6            1 RES     
   19229 H6        -251.9151  -196.7366   392.5931 H6            1 RES     
   19230 H6        -261.9055  -197.8240   390.2950 H6            1 RES     
   19231 H6        -260.8298  -196.7168   390.9879 H6            1 RES     
   19232 H6        -261.7567  -196.1992   393.8195 H6            1 RES     
   19233 H6        -263.3452  -196.8405   394.3649 H6            1 RES     
   19234 H6        -261.1958  -198.7960   393.2364 H6            1 RES     
   19235 H6        -262.2310  -200.4811   394.4723 H6            1 RES     
   19236 H6        -263.2680  -199.3127   395.3459 H6            1 RES     
   19237 H6        -264.4795  -200.6814   393.7196 H6            1 RES     
   19238 H6        -264.6327  -198.9150   393.4058 H6            1 RES     
   19239 H6        -263.2666  -199.0736   391.4418 H6            1 RES     
   19240 H6        -262.6387  -200.6880   391.8494 H6            1 RES     
   19241 H6        -264.2180  -200.6477   389.9486 H6            1 RES     
   19242 H6        -264.8165  -201.6062   391.3579 H6            1 RES     
   19243 H6        -266.1865  -199.6206   392.0733 H6            1 RES     
   19244 H6        -265.7028  -198.7270   390.5848 H6            1 RES     
   19245 H6        -266.8303  -200.5158   389.2149 H6            1 RES     
   19246 H6        -267.0682  -201.4984   390.7202 H6            1 RES     
   19247 H6        -268.3182  -198.7905   390.1290 H6            1 RES     
   19248 H6        -268.4299  -199.6563   391.7321 H6            1 RES     
   19249 H6        -269.5026  -200.6144   389.0307 H6            1 RES     
   19250 H6        -270.4484  -200.0008   390.4508 H6            1 RES     
   19251 H6        -269.5363  -201.5536   390.5906 H6            1 RES     
   19252 H6        -261.1752  -197.9531   396.1155 H6            1 RES     
   19253 H6        -260.1026  -197.3688   394.8080 H6            1 RES     
   19254 H6        -259.0012  -199.4923   394.4715 H6            1 RES     
   19255 H6        -258.8268  -198.7900   396.0637 H6            1 RES     
   19256 H6        -260.3863  -201.3725   395.4808 H6            1 RES     
   19257 H6        -258.8122  -201.1262   396.2843 H6            1 RES     
   19258 H6        -261.5526  -200.1931   397.2583 H6            1 RES     
   19259 H6        -259.9993  -199.6896   398.0491 H6            1 RES     
   19260 H6        -259.4610  -201.9674   398.7189 H6            1 RES     
   19261 H6        -260.7971  -202.6454   397.7313 H6            1 RES     
   19262 H6        -261.4938  -202.6285   400.0869 H6            1 RES     
   19263 H6        -262.5078  -201.5836   399.0585 H6            1 RES     
   19264 H6        -262.1935  -200.4457   401.1502 H6            1 RES     
   19265 H6        -261.3446  -199.5387   399.8908 H6            1 RES     
   19266 H6        -259.1471  -200.4859   400.6561 H6            1 RES     
   19267 H6        -260.0147  -199.5775   401.9347 H6            1 RES     
   19268 H6        -259.8566  -202.6570   401.7052 H6            1 RES     
   19269 H6        -258.9598  -201.6021   402.8441 H6            1 RES     
   19270 H6        -261.1131  -200.8655   403.8973 H6            1 RES     
   19271 H6        -262.0264  -201.9739   402.7930 H6            1 RES     
   19272 H6        -260.8728  -202.6512   403.9835 H6            1 RES     
   19273 C0        -276.1223  -188.1404   392.7690 C0            1 RES     
   19274 C0        -276.2282  -189.9794   392.9366 C0            1 RES     
   19275 C0        -276.0808  -190.3155   394.2763 C0            1 RES     
   19276 S1        -275.8333  -191.9821   394.6126 S1            1 RES     
   19277 C0        -275.8477  -192.6740   393.1039 C0            1 RES     
   19278 C0        -276.1154  -191.4118   392.2351 C0            1 RES     
   19279 C0        -275.5771  -189.1984   395.0763 C0            1 RES     
   19280 C0        -275.0711  -188.3933   393.8904 C0            1 RES     
   19281 C0        -273.7509  -188.6318   393.6624 C0            1 RES     
   19282 C0        -273.1055  -189.4001   394.6283 C0            1 RES     
   19283 S1        -274.1270  -189.8320   396.0105 S1            1 RES     
   19284 H2        -276.0804  -191.5506   391.1612 H2            1 RES     
   19285 H2        -273.2660  -188.4369   392.7198 H2            1 RES     
   19286 N3        -274.6278  -196.2014   394.5261 N3            1 RES     
   19287 C0        -274.9348  -194.9104   394.3272 C0            1 RES     
   19288 C0        -275.5166  -194.3359   393.1011 C0            1 RES     
   19289 C0        -275.6914  -195.4300   392.1229 C0            1 RES     
   19290 N3        -276.1994  -195.2850   390.8581 N3            1 RES     
   19291 S1        -276.1894  -196.8352   390.2480 S1            1 RES     
   19292 N3        -275.5473  -197.7396   391.4727 N3            1 RES     
   19293 C0        -275.3318  -196.8183   392.4212 C0            1 RES     
   19294 C0        -274.7939  -197.2071   393.6235 C0            1 RES     
   19295 H4        -274.7042  -194.2910   395.1654 H4            1 RES     
   19296 C5        -282.0063  -170.3014   397.6026 C5            1 RES     
   19297 C5        -281.7584  -171.7857   397.2106 C5            1 RES     
   19298 C5        -280.9909  -171.9627   395.8594 C5            1 RES     
   19299 C5        -280.4018  -173.4120   395.4975 C5            1 RES     
   19300 C5        -281.3520  -174.5991   395.0350 C5            1 RES     
   19301 C5        -280.8347  -176.1763   394.8866 C5            1 RES     
   19302 C5        -279.9169  -176.8375   393.6808 C5            1 RES     
   19303 C5        -279.6526  -178.5246   393.2759 C5            1 RES     
   19304 C5        -278.5385  -179.7090   393.7917 C5            1 RES     
   19305 C5        -278.1949  -181.4637   393.5750 C5            1 RES     
   19306 C5        -277.3220  -182.5459   392.4607 C5            1 RES     
   19307 C5        -277.4175  -181.5904   391.1373 C5            1 RES     
   19308 C5        -278.8261  -181.0610   390.6037 C5            1 RES     
   19309 C5        -278.7791  -179.7622   389.6877 C5            1 RES     
   19310 C5        -280.1413  -179.3438   389.0126 C5            1 RES     
   19311 C5        -280.8406  -180.4887   388.2476 C5            1 RES     
   19312 C5        -279.9480  -181.1838   387.1911 C5            1 RES     
   19313 C5        -280.3593  -180.9924   385.7266 C5            1 RES     
   19314 C5        -280.3668  -179.5441   385.2497 C5            1 RES     
   19315 C5        -276.6790  -184.4102   392.3516 C5            1 RES     
   19316 C0        -276.8908  -186.2950   392.8357 C0            1 RES     
   19317 C5        -278.4364  -186.4067   392.8776 C5            1 RES     
   19318 C5        -279.2266  -185.1774   393.5408 C5            1 RES     
   19319 C5        -279.3331  -185.2773   395.0722 C5            1 RES     
   19320 C5        -278.0300  -185.5356   395.8632 C5            1 RES     
   19321 C5        -276.8663  -184.5586   395.5871 C5            1 RES     
   19322 C5        -275.7333  -184.6145   396.6034 C5            1 RES     
   19323 C5        -275.1766  -186.0280   396.7774 C5            1 RES     
   19324 C5        -274.2285  -186.0863   397.9708 C5            1 RES     
   19325 C5        -273.9471  -187.5422   398.3170 C5            1 RES     
   19326 C5        -273.1818  -187.6979   399.6111 C5            1 RES     
   19327 C5        -280.6129  -184.9527   392.8461 C5            1 RES     
   19328 C5        -281.4031  -183.5928   392.9599 C5            1 RES     
   19329 C5        -282.1695  -183.1658   394.2413 C5            1 RES     
   19330 C5        -283.1514  -184.2435   394.7189 C5            1 RES     
   19331 C5        -284.1509  -183.7449   395.7870 C5            1 RES     
   19332 C5        -284.8579  -184.9172   396.5025 C5            1 RES     
   19333 C5        -285.6289  -185.8993   395.5959 C5            1 RES     
   19334 C5        -286.8744  -185.3189   394.9002 C5            1 RES     
   19335 C5        -287.9802  -184.8252   395.8541 C5            1 RES     
   19336 C5        -288.5253  -185.9217   396.7735 C5            1 RES     
   19337 H6        -281.0498  -169.7429   397.7214 H6            1 RES     
   19338 H6        -282.6344  -169.7623   396.8618 H6            1 RES     
   19339 H6        -282.5290  -170.2389   398.5873 H6            1 RES     
   19340 H6        -281.1525  -172.2172   398.0345 H6            1 RES     
   19341 H6        -282.7379  -172.3038   397.1704 H6            1 RES     
   19342 H6        -281.6033  -171.5339   395.0343 H6            1 RES     
   19343 H6        -280.1061  -171.2907   395.9670 H6            1 RES     
   19344 H6        -279.8323  -173.7316   396.3917 H6            1 RES     
   19345 H6        -279.6894  -173.2423   394.6653 H6            1 RES     
   19346 H6        -281.8881  -174.2620   394.1166 H6            1 RES     
   19347 H6        -282.1329  -174.6052   395.8328 H6            1 RES     
   19348 H6        -281.8099  -176.7052   394.8013 H6            1 RES     
   19349 H6        -280.3995  -176.4380   395.8664 H6            1 RES     
   19350 H6        -280.4887  -176.4410   392.8050 H6            1 RES     
   19351 H6        -278.9572  -176.2816   393.6528 H6            1 RES     
   19352 H6        -279.4429  -178.3997   392.1932 H6            1 RES     
   19353 H6        -280.6853  -178.9316   393.3245 H6            1 RES     
   19354 H6        -277.5610  -179.1951   393.6847 H6            1 RES     
   19355 H6        -278.7948  -179.6671   394.8699 H6            1 RES     
   19356 H6        -279.1825  -181.9050   393.7397 H6            1 RES     
   19357 H6        -277.6379  -181.6327   394.5060 H6            1 RES     
   19358 H6        -276.2988  -182.1933   392.7208 H6            1 RES     
   19359 H6        -276.7848  -181.9419   390.2978 H6            1 RES     
   19360 H6        -276.9403  -180.6221   391.4438 H6            1 RES     
   19361 H6        -279.5040  -180.7817   391.4344 H6            1 RES     
   19362 H6        -279.2839  -181.8957   390.0506 H6            1 RES     
   19363 H6        -278.0201  -179.8822   388.8967 H6            1 RES     
   19364 H6        -278.4288  -178.8740   390.2636 H6            1 RES     
   19365 H6        -279.9738  -178.4888   388.3138 H6            1 RES     
   19366 H6        -280.8573  -178.9757   389.7836 H6            1 RES     
   19367 H6        -281.1218  -181.2336   389.0176 H6            1 RES     
   19368 H6        -281.8126  -180.1695   387.8054 H6            1 RES     
   19369 H6        -278.8838  -180.9173   387.3008 H6            1 RES     
   19370 H6        -280.0060  -182.2757   387.3826 H6            1 RES     
   19371 H6        -281.3663  -181.4316   385.5669 H6            1 RES     
   19372 H6        -279.6305  -181.5607   385.1068 H6            1 RES     
   19373 H6        -279.3726  -179.0729   385.3933 H6            1 RES     
   19374 H6        -280.6134  -179.5315   384.1654 H6            1 RES     
   19375 H6        -281.1409  -178.9594   385.7876 H6            1 RES     
   19376 H6        -275.6324  -184.2610   392.7028 H6            1 RES     
   19377 H6        -276.4886  -184.4786   391.2596 H6            1 RES     
   19378 H6        -278.6945  -186.4744   391.8034 H6            1 RES     
   19379 H6        -278.7290  -187.3545   393.3707 H6            1 RES     
   19380 H6        -278.7439  -184.2373   393.3497 H6            1 RES     
   19381 H6        -279.7682  -184.3322   395.4425 H6            1 RES     
   19382 H6        -280.0311  -186.0985   395.3220 H6            1 RES     
   19383 H6        -278.3045  -185.4674   396.9364 H6            1 RES     
   19384 H6        -277.6965  -186.5733   395.6521 H6            1 RES     
   19385 H6        -276.3936  -184.8213   394.6614 H6            1 RES     
   19386 H6        -277.2341  -183.5211   395.5389 H6            1 RES     
   19387 H6        -274.9129  -183.9312   396.2826 H6            1 RES     
   19388 H6        -276.1438  -184.2500   397.5657 H6            1 RES     
   19389 H6        -276.0202  -186.7025   397.0164 H6            1 RES     
   19390 H6        -274.6852  -186.3921   395.8462 H6            1 RES     
   19391 H6        -273.2878  -185.5318   397.7580 H6            1 RES     
   19392 H6        -274.7390  -185.6241   398.8413 H6            1 RES     
   19393 H6        -273.3447  -187.9731   397.5061 H6            1 RES     
   19394 H6        -274.9135  -188.0886   398.4320 H6            1 RES     
   19395 H6        -272.1829  -187.2288   399.5142 H6            1 RES     
   19396 H6        -273.0654  -188.7822   399.8243 H6            1 RES     
   19397 H6        -273.7506  -187.2289   400.4409 H6            1 RES     
   19398 H6        -281.2818  -185.8084   393.0477 H6            1 RES     
   19399 H6        -280.3693  -184.9663   391.7595 H6            1 RES     
   19400 H6        -280.7676  -182.7489   392.6312 H6            1 RES     
   19401 H6        -282.1936  -183.6555   392.1807 H6            1 RES     
   19402 H6        -281.4875  -182.8768   395.0680 H6            1 RES     
   19403 H6        -282.7516  -182.2502   393.9753 H6            1 RES     
   19404 H6        -282.5369  -185.0690   395.1320 H6            1 RES     
   19405 H6        -283.7433  -184.6145   393.8555 H6            1 RES     
   19406 H6        -284.8930  -183.0524   395.3267 H6            1 RES     
   19407 H6        -283.6082  -183.1763   396.5734 H6            1 RES     
   19408 H6        -285.5317  -184.5244   397.2931 H6            1 RES     
   19409 H6        -284.0662  -185.5016   397.0189 H6            1 RES     
   19410 H6        -285.9378  -186.7703   396.2089 H6            1 RES     
   19411 H6        -284.9420  -186.3027   394.8237 H6            1 RES     
   19412 H6        -286.5706  -184.4820   394.2368 H6            1 RES     
   19413 H6        -287.3063  -186.1164   394.2555 H6            1 RES     
   19414 H6        -287.6110  -183.9790   396.4689 H6            1 RES     
   19415 H6        -288.8228  -184.4488   395.2342 H6            1 RES     
   19416 H6        -288.9193  -186.7711   396.1756 H6            1 RES     
   19417 H6        -287.7414  -186.2913   397.4658 H6            1 RES     
   19418 H6        -289.3511  -185.5102   397.3912 H6            1 RES     
   19419 C0        -271.4153  -201.0009   394.7040 C0            1 RES     
   19420 C0        -271.8071  -199.9728   396.1908 C0            1 RES     
   19421 C0        -273.1459  -200.1494   396.5164 C0            1 RES     
   19422 S1        -273.7933  -199.0504   397.6675 S1            1 RES     
   19423 C0        -272.4994  -198.0715   398.0183 C0            1 RES     
   19424 C0        -271.4140  -198.7343   397.1226 C0            1 RES     
   19425 C0        -273.8961  -200.8034   395.4435 C0            1 RES     
   19426 C0        -272.8614  -200.5326   394.3634 C0            1 RES     
   19427 C0        -273.1558  -199.3961   393.6752 C0            1 RES     
   19428 C0        -274.3913  -198.8228   393.9663 C0            1 RES     
   19429 S1        -275.3681  -199.7535   395.1153 S1            1 RES     
   19430 H2        -270.4563  -198.2300   397.0744 H2            1 RES     
   19431 H2        -272.4294  -198.8432   393.1025 H2            1 RES     
   19432 N3        -274.7724  -195.5291   400.0976 N3            1 RES     
   19433 C0        -274.2869  -196.4819   399.2870 C0            1 RES     
   19434 C0        -272.8629  -196.7942   399.0709 C0            1 RES     
   19435 C0        -272.0617  -195.8649   399.8948 C0            1 RES     
   19436 N3        -270.6924  -195.8413   399.9537 N3            1 RES     
   19437 S1        -270.3648  -194.6320   401.0518 S1            1 RES     
   19438 N3        -271.8582  -194.0696   401.4802 N3            1 RES     
   19439 C0        -272.6723  -194.8511   400.7580 C0            1 RES     
   19440 C0        -274.0309  -194.6773   400.8580 C0            1 RES     
   19441 H4        -275.0496  -197.0220   398.7715 H4            1 RES     
   19442 C5        -271.1181  -218.0599   385.4781 C5            1 RES     
   19443 C5        -271.0662  -216.8094   386.4011 C5            1 RES     
   19444 C5        -270.1188  -215.6789   385.8810 C5            1 RES     
   19445 C5        -270.2108  -214.2283   386.5635 C5            1 RES     
   19446 C5        -269.6238  -213.9588   388.0157 C5            1 RES     
   19447 C5        -269.9064  -212.5546   388.8674 C5            1 RES     
   19448 C5        -269.2188  -211.0686   388.6376 C5            1 RES     
   19449 C5        -269.1913  -209.6741   389.7028 C5            1 RES     
   19450 C5        -270.2401  -208.3529   389.9565 C5            1 RES     
   19451 C5        -270.4246  -206.9303   391.0456 C5            1 RES     
   19452 C5        -269.8684  -205.2426   391.1759 C5            1 RES     
   19453 C5        -268.4705  -205.4277   390.3480 C5            1 RES     
   19454 C5        -267.3985  -206.5298   390.7781 C5            1 RES     
   19455 C5        -266.3759  -206.9833   389.6481 C5            1 RES     
   19456 C5        -265.2064  -207.9319   390.1158 C5            1 RES     
   19457 C5        -264.4230  -207.4070   391.3388 C5            1 RES     
   19458 C5        -263.8693  -205.9714   391.1692 C5            1 RES     
   19459 C5        -262.3433  -205.8381   391.1066 C5            1 RES     
   19460 C5        -261.6842  -206.5838   389.9515 C5            1 RES     
   19461 C5        -270.2749  -203.5854   392.1706 C5            1 RES     
   19462 C0        -270.9279  -202.7164   393.7985 C0            1 RES     
   19463 C5        -270.4340  -203.7177   394.8740 C5            1 RES     
   19464 C5        -270.5814  -205.2769   394.5239 C5            1 RES     
   19465 C5        -271.9715  -205.8464   394.8551 C5            1 RES     
   19466 C5        -273.2031  -205.0817   394.3176 C5            1 RES     
   19467 C5        -273.2158  -204.8026   392.7988 C5            1 RES     
   19468 C5        -274.5646  -204.3643   392.2433 C5            1 RES     
   19469 C5        -275.1343  -203.1545   392.9848 C5            1 RES     
   19470 C5        -276.5810  -202.9059   392.5707 C5            1 RES     
   19471 C5        -277.2180  -201.9204   393.5411 C5            1 RES     
   19472 C5        -278.7074  -201.7720   393.3300 C5            1 RES     
   19473 C5        -269.4141  -206.1124   395.1518 C5            1 RES     
   19474 C5        -269.0350  -207.5532   394.6352 C5            1 RES     
   19475 C5        -269.8812  -208.8154   394.9558 C5            1 RES     
   19476 C5        -270.1340  -208.9803   396.4600 C5            1 RES     
   19477 C5        -270.6898  -210.3690   396.8486 C5            1 RES     
   19478 C5        -271.2739  -210.3732   398.2786 C5            1 RES     
   19479 C5        -270.3101  -209.9483   399.4063 C5            1 RES     
   19480 C5        -269.1388  -210.9119   399.6738 C5            1 RES     
   19481 C5        -269.5522  -212.3285   400.1199 C5            1 RES     
   19482 C5        -270.3707  -212.3445   401.4140 C5            1 RES     
   19483 H6        -271.4841  -217.8024   384.4580 H6            1 RES     
   19484 H6        -270.1307  -218.5590   385.3778 H6            1 RES     
   19485 H6        -271.8315  -218.8166   385.8843 H6            1 RES     
   19486 H6        -272.1063  -216.4239   386.4438 H6            1 RES     
   19487 H6        -270.7585  -217.1369   387.4147 H6            1 RES     
   19488 H6        -269.0757  -216.0668   385.8443 H6            1 RES     
   19489 H6        -270.4320  -215.5380   384.8189 H6            1 RES     
   19490 H6        -271.2860  -213.9641   386.5529 H6            1 RES     
   19491 H6        -269.6707  -213.5444   385.8785 H6            1 RES     
   19492 H6        -268.5355  -214.2025   387.9886 H6            1 RES     
   19493 H6        -270.0833  -214.7804   388.6158 H6            1 RES     
   19494 H6        -269.5602  -212.8558   389.8809 H6            1 RES     
   19495 H6        -271.0042  -212.4500   388.9089 H6            1 RES     
   19496 H6        -268.1482  -211.3898   388.5934 H6            1 RES     
   19497 H6        -269.4509  -210.7536   387.5995 H6            1 RES     
   19498 H6        -268.2482  -209.2139   389.3416 H6            1 RES     
   19499 H6        -268.9299  -210.1407   390.6767 H6            1 RES     
   19500 H6        -270.4120  -207.9703   388.9293 H6            1 RES     
   19501 H6        -271.1376  -208.9488   390.2199 H6            1 RES     
   19502 H6        -270.2915  -207.3868   392.0311 H6            1 RES     
   19503 H6        -271.5068  -206.7832   390.9329 H6            1 RES     
   19504 H6        -270.4193  -204.8610   390.2871 H6            1 RES     
   19505 H6        -267.9734  -204.4662   390.1092 H6            1 RES     
   19506 H6        -268.7782  -205.8253   389.3447 H6            1 RES     
   19507 H6        -267.8823  -207.4733   391.0995 H6            1 RES     
   19508 H6        -266.8501  -206.1132   391.6372 H6            1 RES     
   19509 H6        -265.9337  -206.0995   389.1587 H6            1 RES     
   19510 H6        -266.8990  -207.5155   388.8197 H6            1 RES     
   19511 H6        -264.4933  -208.1021   389.2731 H6            1 RES     
   19512 H6        -265.6082  -208.9358   390.3866 H6            1 RES     
   19513 H6        -265.1449  -207.4101   392.1789 H6            1 RES     
   19514 H6        -263.6219  -208.1113   391.6616 H6            1 RES     
   19515 H6        -264.3089  -205.4525   390.3014 H6            1 RES     
   19516 H6        -264.1886  -205.3912   392.0601 H6            1 RES     
   19517 H6        -261.9036  -206.1905   392.0631 H6            1 RES     
   19518 H6        -262.1153  -204.7543   390.9983 H6            1 RES     
   19519 H6        -262.0995  -206.2545   388.9767 H6            1 RES     
   19520 H6        -260.5941  -206.3639   389.9663 H6            1 RES     
   19521 H6        -261.8179  -207.6790   390.0661 H6            1 RES     
   19522 H6        -270.9486  -203.0926   391.4328 H6            1 RES     
   19523 H6        -269.3452  -203.0128   391.9676 H6            1 RES     
   19524 H6        -269.3612  -203.4585   394.9585 H6            1 RES     
   19525 H6        -270.9266  -203.4992   395.8418 H6            1 RES     
   19526 H6        -270.4361  -205.4710   393.4777 H6            1 RES     
   19527 H6        -272.0173  -206.8763   394.4590 H6            1 RES     
   19528 H6        -272.0766  -205.8960   395.9554 H6            1 RES     
   19529 H6        -274.0855  -205.7049   394.5721 H6            1 RES     
   19530 H6        -273.2818  -204.1210   394.8685 H6            1 RES     
   19531 H6        -272.5689  -203.9751   392.5839 H6            1 RES     
   19532 H6        -272.8856  -205.6918   392.2383 H6            1 RES     
   19533 H6        -274.4581  -204.1180   391.1613 H6            1 RES     
   19534 H6        -275.2521  -205.2271   392.3456 H6            1 RES     
   19535 H6        -275.1557  -203.3924   394.0650 H6            1 RES     
   19536 H6        -274.5040  -202.2481   392.8345 H6            1 RES     
   19537 H6        -276.6361  -202.5354   391.5232 H6            1 RES     
   19538 H6        -277.1337  -203.8652   392.6512 H6            1 RES     
   19539 H6        -276.7483  -200.9399   393.3855 H6            1 RES     
   19540 H6        -277.0624  -202.2778   394.5869 H6            1 RES     
   19541 H6        -278.9029  -201.3501   392.3245 H6            1 RES     
   19542 H6        -279.1075  -201.0854   394.1065 H6            1 RES     
   19543 H6        -279.2008  -202.7605   393.4374 H6            1 RES     
   19544 H6        -269.4903  -206.1028   396.2538 H6            1 RES     
   19545 H6        -268.5001  -205.5400   394.8738 H6            1 RES     
   19546 H6        -268.8315  -207.5318   393.5478 H6            1 RES     
   19547 H6        -268.0445  -207.7691   395.0915 H6            1 RES     
   19548 H6        -270.8431  -208.8340   394.4023 H6            1 RES     
   19549 H6        -269.2921  -209.6944   394.5979 H6            1 RES     
   19550 H6        -270.8569  -208.1897   396.7466 H6            1 RES     
   19551 H6        -269.1823  -208.8348   397.0138 H6            1 RES     
   19552 H6        -269.8978  -211.1455   396.7388 H6            1 RES     
   19553 H6        -271.5232  -210.6448   396.1664 H6            1 RES     
   19554 H6        -271.7052  -211.3710   398.5062 H6            1 RES     
   19555 H6        -272.1191  -209.6516   398.2816 H6            1 RES     
   19556 H6        -270.8961  -209.8333   400.3408 H6            1 RES     
   19557 H6        -269.9021  -208.9416   399.1807 H6            1 RES     
   19558 H6        -268.5096  -210.9905   398.7623 H6            1 RES     
   19559 H6        -268.5096  -210.4677   400.4768 H6            1 RES     
   19560 H6        -270.1242  -212.8355   399.3161 H6            1 RES     
   19561 H6        -268.6245  -212.9156   400.2950 H6            1 RES     
   19562 H6        -269.8058  -211.8586   402.2381 H6            1 RES     
   19563 H6        -271.3433  -211.8283   401.2801 H6            1 RES     
   19564 H6        -270.5856  -213.3948   401.7031 H6            1 RES     
   19565 C0        -276.7956  -190.3662   401.7219 C0            1 RES     
   19566 C0        -277.8745  -191.8272   401.3716 C0            1 RES     
   19567 C0        -277.7256  -192.7498   402.3993 C0            1 RES     
   19568 S1        -278.3933  -194.3074   402.1169 S1            1 RES     
   19569 C0        -279.0306  -194.1697   400.5905 C0            1 RES     
   19570 C0        -278.6889  -192.6816   400.2929 C0            1 RES     
   19571 C0        -276.5667  -192.4571   403.2437 C0            1 RES     
   19572 C0        -275.8974  -191.5260   402.2459 C0            1 RES     
   19573 C0        -274.9879  -192.1937   401.4850 C0            1 RES     
   19574 C0        -274.7317  -193.5068   401.8722 C0            1 RES     
   19575 S1        -275.5838  -194.0066   403.3435 S1            1 RES     
   19576 H2        -278.9094  -192.3279   399.2929 H2            1 RES     
   19577 H2        -274.6350  -191.8370   400.5312 H2            1 RES     
   19578 N3        -279.7613  -198.0897   400.3602 N3            1 RES     
   19579 C0        -279.3283  -196.8596   400.6762 C0            1 RES     
   19580 C0        -279.6817  -195.6099   399.9794 C0            1 RES     
   19581 C0        -280.5878  -195.9506   398.8626 C0            1 RES     
   19582 N3        -281.1252  -195.0511   397.9789 N3            1 RES     
   19583 S1        -282.0741  -195.9926   396.9846 S1            1 RES     
   19584 N3        -281.8546  -197.5253   397.5613 N3            1 RES     
   19585 C0        -281.0158  -197.3240   398.5864 C0            1 RES     
   19586 C0        -280.5992  -198.3990   399.3327 C0            1 RES     
   19587 H4        -278.6623  -196.8512   401.5102 H4            1 RES     
   19588 C5        -270.9380  -176.0129   413.3789 C5            1 RES     
   19589 C5        -271.6212  -177.1050   412.5076 C5            1 RES     
   19590 C5        -271.3091  -176.9814   410.9800 C5            1 RES     
   19591 C5        -271.6893  -178.2102   410.0188 C5            1 RES     
   19592 C5        -273.1976  -178.5102   409.6173 C5            1 RES     
   19593 C5        -273.6732  -179.9018   408.8336 C5            1 RES     
   19594 C5        -273.4834  -180.2866   407.2368 C5            1 RES     
   19595 C5        -274.2676  -181.5382   406.2889 C5            1 RES     
   19596 C5        -273.9315  -183.1826   405.9838 C5            1 RES     
   19597 C5        -274.6582  -184.6056   405.1525 C5            1 RES     
   19598 C5        -274.7239  -185.3393   403.5301 C5            1 RES     
   19599 C5        -274.4845  -183.9642   402.6785 C5            1 RES     
   19600 C5        -275.4271  -182.6924   402.8859 C5            1 RES     
   19601 C5        -274.8156  -181.2937   402.4406 C5            1 RES     
   19602 C5        -275.8045  -180.0661   402.4737 C5            1 RES     
   19603 C5        -277.1330  -180.3094   401.7247 C5            1 RES     
   19604 C5        -276.9587  -180.7758   400.2590 C5            1 RES     
   19605 C5        -277.4233  -179.7941   399.1770 C5            1 RES     
   19606 C5        -276.7032  -178.4501   399.1826 C5            1 RES     
   19607 C5        -275.2496  -187.0277   402.6505 C5            1 RES     
   19608 C0        -276.3896  -188.6183   402.6052 C0            1 RES     
   19609 C5        -277.7072  -188.0413   403.1835 C5            1 RES     
   19610 C5        -277.5648  -187.0290   404.4205 C5            1 RES     
   19611 C5        -277.4615  -187.7405   405.7806 C5            1 RES     
   19612 C5        -276.4136  -188.8689   405.9183 C5            1 RES     
   19613 C5        -274.9659  -188.4987   405.5283 C5            1 RES     
   19614 C5        -273.9086  -189.4944   405.9869 C5            1 RES     
   19615 C5        -274.2094  -190.9192   405.5206 C5            1 RES     
   19616 C5        -273.2760  -191.9138   406.2032 C5            1 RES     
   19617 C5        -273.7977  -193.3265   405.9784 C5            1 RES     
   19618 C5        -273.0514  -194.3611   406.7893 C5            1 RES     
   19619 C5        -278.6839  -185.9329   404.3886 C5            1 RES     
   19620 C5        -278.5573  -184.5746   405.1797 C5            1 RES     
   19621 C5        -278.7410  -184.4729   406.7185 C5            1 RES     
   19622 C5        -280.0637  -185.0914   407.1892 C5            1 RES     
   19623 C5        -280.4323  -184.7361   408.6473 C5            1 RES     
   19624 C5        -281.5448  -185.6555   409.1979 C5            1 RES     
   19625 C5        -282.8643  -185.6774   408.3982 C5            1 RES     
   19626 C5        -283.6714  -184.3658   408.4172 C5            1 RES     
   19627 C5        -284.1479  -183.9166   409.8127 C5            1 RES     
   19628 C5        -285.0534  -184.9391   410.5051 C5            1 RES     
   19629 H6        -269.8282  -176.0529   413.2915 H6            1 RES     
   19630 H6        -271.2710  -174.9861   413.1167 H6            1 RES     
   19631 H6        -271.1724  -176.1710   414.4590 H6            1 RES     
   19632 H6        -271.2333  -178.0750   412.8826 H6            1 RES     
   19633 H6        -272.7148  -177.0583   412.6846 H6            1 RES     
   19634 H6        -271.7039  -176.0099   410.6055 H6            1 RES     
   19635 H6        -270.1967  -176.8962   410.9426 H6            1 RES     
   19636 H6        -271.2580  -179.1082   410.5021 H6            1 RES     
   19637 H6        -271.1470  -178.0227   409.0704 H6            1 RES     
   19638 H6        -273.5958  -177.6025   409.1055 H6            1 RES     
   19639 H6        -273.7108  -178.5246   410.6086 H6            1 RES     
   19640 H6        -274.7764  -179.8455   408.9660 H6            1 RES     
   19641 H6        -273.3056  -180.7335   409.4591 H6            1 RES     
   19642 H6        -273.8711  -179.3358   406.7932 H6            1 RES     
   19643 H6        -272.3960  -180.2648   407.0182 H6            1 RES     
   19644 H6        -274.2007  -181.0523   405.2934 H6            1 RES     
   19645 H6        -275.3289  -181.4209   406.5964 H6            1 RES     
   19646 H6        -272.8654  -183.1662   405.6767 H6            1 RES     
   19647 H6        -273.9446  -183.5159   407.0414 H6            1 RES     
   19648 H6        -275.6831  -184.5865   405.5355 H6            1 RES     
   19649 H6        -274.1477  -185.3971   405.7169 H6            1 RES     
   19650 H6        -273.6510  -185.6320   403.4824 H6            1 RES     
   19651 H6        -274.2972  -184.1445   401.6009 H6            1 RES     
   19652 H6        -273.5088  -183.5565   403.0543 H6            1 RES     
   19653 H6        -275.6927  -182.5445   403.9514 H6            1 RES     
   19654 H6        -276.3523  -182.8949   402.3245 H6            1 RES     
   19655 H6        -274.3891  -181.3709   401.4265 H6            1 RES     
   19656 H6        -273.9449  -181.0122   403.0776 H6            1 RES     
   19657 H6        -275.3059  -179.1630   402.0454 H6            1 RES     
   19658 H6        -276.0617  -179.8055   403.5266 H6            1 RES     
   19659 H6        -277.6520  -181.1080   402.2901 H6            1 RES     
   19660 H6        -277.8208  -179.4348   401.7891 H6            1 RES     
   19661 H6        -275.9242  -181.0869   400.0384 H6            1 RES     
   19662 H6        -277.5806  -181.6863   400.1303 H6            1 RES     
   19663 H6        -278.5148  -179.6206   399.2818 H6            1 RES     
   19664 H6        -277.2425  -180.2834   398.1940 H6            1 RES     
   19665 H6        -275.6070  -178.5857   399.0776 H6            1 RES     
   19666 H6        -277.0715  -177.8494   398.3222 H6            1 RES     
   19667 H6        -276.9251  -177.8916   400.1149 H6            1 RES     
   19668 H6        -274.2558  -187.5298   402.6150 H6            1 RES     
   19669 H6        -275.3071  -186.6798   401.5975 H6            1 RES     
   19670 H6        -278.1277  -187.5027   402.3127 H6            1 RES     
   19671 H6        -278.3924  -188.8699   403.4497 H6            1 RES     
   19672 H6        -276.6801  -186.4246   404.3475 H6            1 RES     
   19673 H6        -277.2336  -186.9763   406.5446 H6            1 RES     
   19674 H6        -278.4468  -188.1833   406.0199 H6            1 RES     
   19675 H6        -276.4279  -189.1715   406.9860 H6            1 RES     
   19676 H6        -276.7503  -189.7311   405.3052 H6            1 RES     
   19677 H6        -274.8739  -188.5007   404.4601 H6            1 RES     
   19678 H6        -274.6990  -187.5063   405.9255 H6            1 RES     
   19679 H6        -272.9112  -189.1816   405.5992 H6            1 RES     
   19680 H6        -273.8875  -189.4567   407.0939 H6            1 RES     
   19681 H6        -275.2340  -191.1784   405.8474 H6            1 RES     
   19682 H6        -274.1593  -191.0061   404.4109 H6            1 RES     
   19683 H6        -272.2346  -191.8025   405.8283 H6            1 RES     
   19684 H6        -273.2972  -191.7149   407.2950 H6            1 RES     
   19685 H6        -273.6745  -193.5680   404.9142 H6            1 RES     
   19686 H6        -274.8714  -193.3767   406.2791 H6            1 RES     
   19687 H6        -271.9911  -194.3936   406.4700 H6            1 RES     
   19688 H6        -273.5231  -195.3523   406.6172 H6            1 RES     
   19689 H6        -273.1229  -194.1132   407.8689 H6            1 RES     
   19690 H6        -279.6721  -186.3939   404.5647 H6            1 RES     
   19691 H6        -278.6667  -185.5681   403.3366 H6            1 RES     
   19692 H6        -277.6231  -184.0515   404.9006 H6            1 RES     
   19693 H6        -279.3626  -183.9280   404.7682 H6            1 RES     
   19694 H6        -277.8912  -184.9163   407.2782 H6            1 RES     
   19695 H6        -278.7515  -183.3840   406.9677 H6            1 RES     
   19696 H6        -279.9531  -186.1898   407.0838 H6            1 RES     
   19697 H6        -280.8912  -184.7353   406.5395 H6            1 RES     
   19698 H6        -280.7284  -183.6640   408.7196 H6            1 RES     
   19699 H6        -279.5478  -184.8821   409.3050 H6            1 RES     
   19700 H6        -281.7506  -185.4031   410.2596 H6            1 RES     
   19701 H6        -281.1393  -186.6901   409.1883 H6            1 RES     
   19702 H6        -283.5011  -186.4923   408.7988 H6            1 RES     
   19703 H6        -282.6507  -185.9520   407.3448 H6            1 RES     
   19704 H6        -283.0658  -183.5529   407.9642 H6            1 RES     
   19705 H6        -284.5696  -184.5100   407.7764 H6            1 RES     
   19706 H6        -283.2787  -183.6934   410.4648 H6            1 RES     
   19707 H6        -284.7268  -182.9756   409.6893 H6            1 RES     
   19708 H6        -285.9419  -185.1612   409.8763 H6            1 RES     
   19709 H6        -284.5070  -185.8810   410.7162 H6            1 RES     
   19710 H6        -285.4007  -184.5282   411.4764 H6            1 RES     
   19711 C0        -279.7694  -203.3281   397.9218 C0            1 RES     
   19712 C0        -279.2811  -203.0146   399.6781 C0            1 RES     
   19713 C0        -280.4202  -202.7057   400.4106 C0            1 RES     
   19714 S1        -280.1551  -202.0748   401.9866 S1            1 RES     
   19715 C0        -278.4996  -202.0393   402.1013 C0            1 RES     
   19716 C0        -278.1240  -202.6371   400.7152 C0            1 RES     
   19717 C0        -281.5674  -202.4071   399.5525 C0            1 RES     
   19718 C0        -280.7455  -202.1731   398.2955 C0            1 RES     
   19719 C0        -280.4664  -200.8514   398.1303 C0            1 RES     
   19720 C0        -281.1110  -199.9884   399.0132 C0            1 RES     
   19721 S1        -282.2404  -200.7929   400.1166 S1            1 RES     
   19722 H2        -277.0701  -202.6457   400.4644 H2            1 RES     
   19723 H2        -279.6585  -200.4868   397.5173 H2            1 RES     
   19724 N3        -278.6133  -199.9781   405.5207 N3            1 RES     
   19725 C0        -278.8749  -200.5748   404.3477 C0            1 RES     
   19726 C0        -277.9196  -201.3511   403.5372 C0            1 RES     
   19727 C0        -276.6180  -201.3469   404.2373 C0            1 RES     
   19728 N3        -275.4772  -201.9594   403.7876 N3            1 RES     
   19729 S1        -274.3632  -201.6497   404.9870 S1            1 RES     
   19730 N3        -275.2024  -200.7422   406.0835 N3            1 RES     
   19731 C0        -276.4163  -200.6708   405.5210 C0            1 RES     
   19732 C0        -277.4136  -199.9798   406.1644 C0            1 RES     
   19733 H4        -279.8798  -200.4298   404.0187 H4            1 RES     
   19734 C5        -290.4618  -212.6540   384.6963 C5            1 RES     
   19735 C5        -289.5783  -212.1125   385.8559 C5            1 RES     
   19736 C5        -288.2613  -211.4188   385.3760 C5            1 RES     
   19737 C5        -287.4230  -210.5509   386.4355 C5            1 RES     
   19738 C5        -286.5613  -211.2456   387.5761 C5            1 RES     
   19739 C5        -285.8771  -210.4049   388.8419 C5            1 RES     
   19740 C5        -284.5288  -209.4483   388.8182 C5            1 RES     
   19741 C5        -283.5625  -208.8471   390.1542 C5            1 RES     
   19742 C5        -283.6461  -207.4669   391.1533 C5            1 RES     
   19743 C5        -282.8335  -206.7608   392.5973 C5            1 RES     
   19744 C5        -281.4229  -205.7490   392.9987 C5            1 RES     
   19745 C5        -280.5166  -206.1427   391.6959 C5            1 RES     
   19746 C5        -280.1829  -207.6663   391.3549 C5            1 RES     
   19747 C5        -279.7803  -207.9691   389.8467 C5            1 RES     
   19748 C5        -279.2760  -209.4328   389.5474 C5            1 RES     
   19749 C5        -278.1491  -209.9132   390.4878 C5            1 RES     
   19750 C5        -276.9283  -208.9636   390.5521 C5            1 RES     
   19751 C5        -275.6181  -209.5058   389.9692 C5            1 RES     
   19752 C5        -275.6784  -209.8647   388.4885 C5            1 RES     
   19753 C5        -280.6768  -204.7200   394.5105 C5            1 RES     
   19754 C0        -280.4675  -204.4779   396.4416 C0            1 RES     
   19755 C5        -280.4466  -205.9544   396.9135 C5            1 RES     
   19756 C5        -281.4873  -206.9489   396.2041 C5            1 RES     
   19757 C5        -282.8852  -206.9260   396.8459 C5            1 RES     
   19758 C5        -283.5534  -205.5472   397.0529 C5            1 RES     
   19759 C5        -283.6527  -204.6490   395.8006 C5            1 RES     
   19760 C5        -284.6004  -203.4649   395.9400 C5            1 RES     
   19761 C5        -284.2762  -202.5999   397.1585 C5            1 RES     
   19762 C5        -285.3864  -201.5831   397.4034 C5            1 RES     
   19763 C5        -285.2048  -200.9650   398.7831 C5            1 RES     
   19764 C5        -286.3728  -200.0978   399.1934 C5            1 RES     
   19765 C5        -280.8963  -208.3947   396.0800 C5            1 RES     
   19766 C5        -281.4683  -209.4554   395.0629 C5            1 RES     
   19767 C5        -282.8075  -210.2079   395.2910 C5            1 RES     
   19768 C5        -282.8642  -210.8933   396.6623 C5            1 RES     
   19769 C5        -284.0255  -211.9028   396.8055 C5            1 RES     
   19770 C5        -284.2756  -212.2837   398.2815 C5            1 RES     
   19771 C5        -283.0721  -212.8794   399.0415 C5            1 RES     
   19772 C5        -282.6067  -214.2666   398.5608 C5            1 RES     
   19773 C5        -283.6579  -215.3863   398.6937 C5            1 RES     
   19774 C5        -284.1277  -215.6125   400.1334 C5            1 RES     
   19775 H6        -290.7817  -211.8382   384.0084 H6            1 RES     
   19776 H6        -289.9481  -213.4344   384.0955 H6            1 RES     
   19777 H6        -291.3988  -213.1092   385.0982 H6            1 RES     
   19778 H6        -290.2072  -211.3717   386.3923 H6            1 RES     
   19779 H6        -289.3460  -212.9542   386.5392 H6            1 RES     
   19780 H6        -287.6303  -212.1655   384.8430 H6            1 RES     
   19781 H6        -288.6094  -210.6985   384.5974 H6            1 RES     
   19782 H6        -288.1564  -209.8654   386.9026 H6            1 RES     
   19783 H6        -286.7126  -209.9519   385.8310 H6            1 RES     
   19784 H6        -285.8118  -211.9041   387.0769 H6            1 RES     
   19785 H6        -287.2957  -211.9496   388.0356 H6            1 RES     
   19786 H6        -285.5988  -211.2430   389.5186 H6            1 RES     
   19787 H6        -286.7092  -209.8569   389.3167 H6            1 RES     
   19788 H6        -283.8395  -210.1518   388.2879 H6            1 RES     
   19789 H6        -284.7102  -208.6389   388.0816 H6            1 RES     
   19790 H6        -282.5951  -208.7444   389.6201 H6            1 RES     
   19791 H6        -283.4514  -209.7590   390.7792 H6            1 RES     
   19792 H6        -283.7392  -206.6363   390.4236 H6            1 RES     
   19793 H6        -284.6671  -207.6520   391.5447 H6            1 RES     
   19794 H6        -282.8198  -207.6134   393.2831 H6            1 RES     
   19795 H6        -283.6540  -206.1181   392.9429 H6            1 RES     
   19796 H6        -281.8039  -204.8133   392.5314 H6            1 RES     
   19797 H6        -279.6159  -205.5068   391.5818 H6            1 RES     
   19798 H6        -281.1492  -205.8707   390.8098 H6            1 RES     
   19799 H6        -281.0496  -208.3308   391.5421 H6            1 RES     
   19800 H6        -279.3664  -207.9656   392.0301 H6            1 RES     
   19801 H6        -279.0078  -207.2581   389.5094 H6            1 RES     
   19802 H6        -280.6355  -207.7847   389.1553 H6            1 RES     
   19803 H6        -278.9231  -209.5059   388.4902 H6            1 RES     
   19804 H6        -280.1172  -210.1581   389.6420 H6            1 RES     
   19805 H6        -278.6057  -209.9702   391.4954 H6            1 RES     
   19806 H6        -277.8334  -210.9595   390.2690 H6            1 RES     
   19807 H6        -277.1390  -207.9793   390.1021 H6            1 RES     
   19808 H6        -276.7246  -208.7664   391.6254 H6            1 RES     
   19809 H6        -275.3010  -210.3998   390.5460 H6            1 RES     
   19810 H6        -274.8485  -208.7137   390.1058 H6            1 RES     
   19811 H6        -275.9914  -208.9914   387.8799 H6            1 RES     
   19812 H6        -274.6639  -210.1814   388.1611 H6            1 RES     
   19813 H6        -276.3763  -210.7101   388.3193 H6            1 RES     
   19814 H6        -281.0722  -203.7106   394.2544 H6            1 RES     
   19815 H6        -279.6327  -204.5941   394.1536 H6            1 RES     
   19816 H6        -279.4132  -206.2638   396.6654 H6            1 RES     
   19817 H6        -280.5726  -205.9967   398.0132 H6            1 RES     
   19818 H6        -281.6440  -206.6993   395.1714 H6            1 RES     
   19819 H6        -283.5570  -207.5324   396.2128 H6            1 RES     
   19820 H6        -282.8221  -207.4073   397.8401 H6            1 RES     
   19821 H6        -284.5787  -205.7562   397.4228 H6            1 RES     
   19822 H6        -282.9969  -205.0085   397.8484 H6            1 RES     
   19823 H6        -282.7001  -204.1943   395.6128 H6            1 RES     
   19824 H6        -283.9658  -205.2387   394.9242 H6            1 RES     
   19825 H6        -284.5504  -202.8390   395.0187 H6            1 RES     
   19826 H6        -285.6237  -203.8790   396.0333 H6            1 RES     
   19827 H6        -284.2523  -203.2560   398.0489 H6            1 RES     
   19828 H6        -283.2831  -202.1050   397.0568 H6            1 RES     
   19829 H6        -285.3940  -200.8045   396.6089 H6            1 RES     
   19830 H6        -286.3566  -202.1224   397.3993 H6            1 RES     
   19831 H6        -284.3026  -200.3392   398.7580 H6            1 RES     
   19832 H6        -285.1081  -201.7771   399.5426 H6            1 RES     
   19833 H6        -286.4598  -199.2358   398.5031 H6            1 RES     
   19834 H6        -286.1944  -199.7311   400.2270 H6            1 RES     
   19835 H6        -287.3065  -200.6980   399.1825 H6            1 RES     
   19836 H6        -280.7765  -208.8433   397.0822 H6            1 RES     
   19837 H6        -279.8772  -208.2287   395.6628 H6            1 RES     
   19838 H6        -281.4646  -209.0453   394.0353 H6            1 RES     
   19839 H6        -280.7058  -210.2639   395.0342 H6            1 RES     
   19840 H6        -283.6923  -209.5515   395.1549 H6            1 RES     
   19841 H6        -282.8710  -210.9941   394.4999 H6            1 RES     
   19842 H6        -282.9704  -210.0853   397.4144 H6            1 RES     
   19843 H6        -281.9175  -211.4464   396.8396 H6            1 RES     
   19844 H6        -283.8267  -212.8089   396.1877 H6            1 RES     
   19845 H6        -284.9685  -211.4465   396.4331 H6            1 RES     
   19846 H6        -285.1444  -212.9720   398.3506 H6            1 RES     
   19847 H6        -284.5654  -211.3494   398.8087 H6            1 RES     
   19848 H6        -283.3371  -212.9463   400.1163 H6            1 RES     
   19849 H6        -282.2170  -212.1748   398.9853 H6            1 RES     
   19850 H6        -282.2825  -214.2006   397.5009 H6            1 RES     
   19851 H6        -281.7177  -214.5552   399.1647 H6            1 RES     
   19852 H6        -284.5351  -215.1716   398.0495 H6            1 RES     
   19853 H6        -283.1976  -216.3315   398.3319 H6            1 RES     
   19854 H6        -283.2650  -215.8495   400.7919 H6            1 RES     
   19855 H6        -284.6574  -214.7211   400.5274 H6            1 RES     
   19856 H6        -284.8391  -216.4646   400.1612 H6            1 RES     
   19857 C0        -277.1434  -195.7828   409.2119 C0            1 RES     
   19858 C0        -278.8906  -196.2892   408.8770 C0            1 RES     
   19859 C0        -279.1155  -197.5308   409.4580 C0            1 RES     
   19860 S1        -280.5695  -198.3243   409.0020 S1            1 RES     
   19861 C0        -281.2585  -197.2571   407.9335 C0            1 RES     
   19862 C0        -280.2023  -196.1159   407.9792 C0            1 RES     
   19863 C0        -277.8714  -198.1898   409.8573 C0            1 RES     
   19864 C0        -276.9687  -197.3163   409.0014 C0            1 RES     
   19865 C0        -276.7179  -197.9001   407.7980 C0            1 RES     
   19866 C0        -277.1745  -199.2087   407.6605 C0            1 RES     
   19867 S1        -277.9115  -199.8758   409.1275 S1            1 RES     
   19868 H2        -280.3467  -195.2985   407.2830 H2            1 RES     
   19869 H2        -276.3850  -197.3541   406.9305 H2            1 RES     
   19870 N3        -284.0650  -199.8871   406.8566 N3            1 RES     
   19871 C0        -282.9789  -199.2601   407.3337 C0            1 RES     
   19872 C0        -282.6866  -197.8204   407.2160 C0            1 RES     
   19873 C0        -283.7945  -197.1893   406.4686 C0            1 RES     
   19874 N3        -283.8766  -195.8581   406.1522 N3            1 RES     
   19875 S1        -285.3329  -195.7309   405.3531 S1            1 RES     
   19876 N3        -285.9107  -197.2787   405.3321 N3            1 RES     
   19877 C0        -284.9496  -197.9479   405.9828 C0            1 RES     
   19878 C0        -285.0856  -199.3014   406.1718 C0            1 RES     
   19879 H4        -282.2966  -199.9183   407.8239 H4            1 RES     
   19880 C5        -262.5340  -192.3644   421.5040 C5            1 RES     
   19881 C5        -263.8371  -192.5266   420.6707 C5            1 RES     
   19882 C5        -263.7586  -191.8891   419.2447 C5            1 RES     
   19883 C5        -264.9044  -192.2517   418.1797 C5            1 RES     
   19884 C5        -266.3670  -191.6409   418.2983 C5            1 RES     
   19885 C5        -267.6524  -192.1671   417.3776 C5            1 RES     
   19886 C5        -267.9668  -191.8412   415.7874 C5            1 RES     
   19887 C5        -269.4531  -192.0489   414.8775 C5            1 RES     
   19888 C5        -270.1389  -193.3433   414.0034 C5            1 RES     
   19889 C5        -271.6545  -193.7619   413.1249 C5            1 RES     
   19890 C5        -272.3750  -193.5836   411.5050 C5            1 RES     
   19891 C5        -271.5539  -192.2391   411.0673 C5            1 RES     
   19892 C5        -271.5855  -190.9238   411.9717 C5            1 RES     
   19893 C5        -270.3823  -189.9060   411.7608 C5            1 RES     
   19894 C5        -270.5041  -188.5271   412.5160 C5            1 RES     
   19895 C5        -271.8441  -187.7971   412.2780 C5            1 RES     
   19896 C5        -272.1954  -187.5862   410.7853 C5            1 RES     
   19897 C5        -272.2042  -186.1349   410.2910 C5            1 RES     
   19898 C5        -270.8702  -185.4081   410.4213 C5            1 RES     
   19899 C5        -273.8813  -194.2765   410.4317 C5            1 RES     
   19900 C0        -275.7013  -194.9924   410.3504 C0            1 RES     
   19901 C5        -276.3649  -194.2178   411.5179 C5            1 RES     
   19902 C5        -275.4891  -194.0416   412.8511 C5            1 RES     
   19903 C5        -275.5810  -195.2462   413.8034 C5            1 RES     
   19904 C5        -275.3285  -196.6497   413.2060 C5            1 RES     
   19905 C5        -274.0035  -196.8271   412.4329 C5            1 RES     
   19906 C5        -273.6183  -198.2740   412.1535 C5            1 RES     
   19907 C5        -274.7285  -199.0443   411.4379 C5            1 RES     
   19908 C5        -274.4080  -200.5350   411.4023 C5            1 RES     
   19909 C5        -275.6532  -201.3058   410.9852 C5            1 RES     
   19910 C5        -275.4871  -202.8021   411.1205 C5            1 RES     
   19911 C5        -275.8006  -192.6789   413.5588 C5            1 RES     
   19912 C5        -274.8174  -192.0278   414.6058 C5            1 RES     
   19913 C5        -274.6644  -192.5513   416.0599 C5            1 RES     
   19914 C5        -276.0120  -192.6583   416.7852 C5            1 RES     
   19915 C5        -275.8823  -192.8667   418.3110 C5            1 RES     
   19916 C5        -277.2122  -193.3367   418.9407 C5            1 RES     
   19917 C5        -278.4302  -192.4155   418.7196 C5            1 RES     
   19918 C5        -278.3594  -191.0453   419.4191 C5            1 RES     
   19919 C5        -278.2757  -191.1050   420.9573 C5            1 RES     
   19920 C5        -279.4710  -191.8097   421.6050 C5            1 RES     
   19921 H6        -261.6638  -192.8469   421.0032 H6            1 RES     
   19922 H6        -262.2789  -191.3005   421.6966 H6            1 RES     
   19923 H6        -262.6399  -192.8642   422.4968 H6            1 RES     
   19924 H6        -263.9978  -193.6206   420.5739 H6            1 RES     
   19925 H6        -264.6759  -192.0858   421.2465 H6            1 RES     
   19926 H6        -263.6027  -190.7912   419.3451 H6            1 RES     
   19927 H6        -262.8089  -192.2974   418.8235 H6            1 RES     
   19928 H6        -264.9724  -193.3569   418.1831 H6            1 RES     
   19929 H6        -264.5096  -191.9236   417.1973 H6            1 RES     
   19930 H6        -266.2711  -190.5301   418.2603 H6            1 RES     
   19931 H6        -266.6351  -191.8661   419.3583 H6            1 RES     
   19932 H6        -268.5010  -191.6948   417.9205 H6            1 RES     
   19933 H6        -267.7129  -193.2556   417.5494 H6            1 RES     
   19934 H6        -267.8275  -190.7317   415.8182 H6            1 RES     
   19935 H6        -267.1016  -192.2072   415.1973 H6            1 RES     
   19936 H6        -269.2887  -191.2573   414.1173 H6            1 RES     
   19937 H6        -270.2055  -191.6254   415.5769 H6            1 RES     
   19938 H6        -269.3084  -193.6649   413.3416 H6            1 RES     
   19939 H6        -270.1648  -194.0674   414.8430 H6            1 RES     
   19940 H6        -272.4196  -193.4647   413.8486 H6            1 RES     
   19941 H6        -271.5858  -194.8551   413.2014 H6            1 RES     
   19942 H6        -271.6687  -194.2644   410.9791 H6            1 RES     
   19943 H6        -271.6737  -191.9835   409.9954 H6            1 RES     
   19944 H6        -270.4708  -192.5194   411.1553 H6            1 RES     
   19945 H6        -271.5496  -191.1649   413.0526 H6            1 RES     
   19946 H6        -272.5435  -190.4235   411.7614 H6            1 RES     
   19947 H6        -270.2393  -189.7038   410.6862 H6            1 RES     
   19948 H6        -269.4129  -190.3542   412.0811 H6            1 RES     
   19949 H6        -269.6650  -187.8532   412.2172 H6            1 RES     
   19950 H6        -270.4009  -188.6785   413.6155 H6            1 RES     
   19951 H6        -272.6200  -188.4416   412.7358 H6            1 RES     
   19952 H6        -271.9108  -186.8404   412.8458 H6            1 RES     
   19953 H6        -271.5582  -188.1875   410.1158 H6            1 RES     
   19954 H6        -273.2286  -187.9639   410.6367 H6            1 RES     
   19955 H6        -272.9827  -185.5643   410.8394 H6            1 RES     
   19956 H6        -272.4854  -186.1592   409.2146 H6            1 RES     
   19957 H6        -270.0669  -185.9512   409.8820 H6            1 RES     
   19958 H6        -270.9760  -184.3948   409.9752 H6            1 RES     
   19959 H6        -270.5924  -185.2891   411.4885 H6            1 RES     
   19960 H6        -273.3537  -195.0909   409.8847 H6            1 RES     
   19961 H6        -273.9043  -193.5118   409.6266 H6            1 RES     
   19962 H6        -276.5494  -193.2253   411.0640 H6            1 RES     
   19963 H6        -277.3411  -194.6793   411.7649 H6            1 RES     
   19964 H6        -274.4432  -193.9288   412.6347 H6            1 RES     
   19965 H6        -274.8487  -195.0909   414.6155 H6            1 RES     
   19966 H6        -276.5927  -195.2625   414.2509 H6            1 RES     
   19967 H6        -275.3366  -197.3537   414.0639 H6            1 RES     
   19968 H6        -276.1797  -196.9004   412.5388 H6            1 RES     
   19969 H6        -274.1007  -196.3946   411.4567 H6            1 RES     
   19970 H6        -273.1717  -196.3482   412.9738 H6            1 RES     
   19971 H6        -272.6925  -198.2984   411.5328 H6            1 RES     
   19972 H6        -273.4026  -198.7459   413.1323 H6            1 RES     
   19973 H6        -275.6566  -198.9390   412.0307 H6            1 RES     
   19974 H6        -274.9137  -198.6410   410.4160 H6            1 RES     
   19975 H6        -273.5558  -200.7417   410.7177 H6            1 RES     
   19976 H6        -274.1400  -200.8560   412.4306 H6            1 RES     
   19977 H6        -275.8572  -201.0754   409.9310 H6            1 RES     
   19978 H6        -276.5097  -201.0043   411.6343 H6            1 RES     
   19979 H6        -274.6904  -203.1538   410.4358 H6            1 RES     
   19980 H6        -276.4494  -203.2897   410.8543 H6            1 RES     
   19981 H6        -275.2349  -203.0571   412.1710 H6            1 RES     
   19982 H6        -276.8351  -192.6800   413.9462 H6            1 RES     
   19983 H6        -275.7531  -191.9346   412.7317 H6            1 RES     
   19984 H6        -273.8093  -191.9087   414.1658 H6            1 RES     
   19985 H6        -275.1828  -190.9853   414.7311 H6            1 RES     
   19986 H6        -274.1263  -193.5209   416.1081 H6            1 RES     
   19987 H6        -274.0294  -191.8088   416.6015 H6            1 RES     
   19988 H6        -276.5474  -193.5164   416.3303 H6            1 RES     
   19989 H6        -276.5947  -191.7266   416.6240 H6            1 RES     
   19990 H6        -275.5183  -191.9325   418.7978 H6            1 RES     
   19991 H6        -275.1353  -193.6635   418.5195 H6            1 RES     
   19992 H6        -277.0701  -193.5210   420.0266 H6            1 RES     
   19993 H6        -277.4560  -194.3178   418.4794 H6            1 RES     
   19994 H6        -279.3377  -192.9474   419.0709 H6            1 RES     
   19995 H6        -278.5770  -192.2557   417.6315 H6            1 RES     
   19996 H6        -277.4868  -190.4779   419.0326 H6            1 RES     
   19997 H6        -279.2757  -190.4762   419.1458 H6            1 RES     
   19998 H6        -277.3375  -191.6048   421.2744 H6            1 RES     
   19999 H6        -278.2468  -190.0611   421.3384 H6            1 RES     
   20000 H6        -280.4207  -191.3110   421.3159 H6            1 RES     
   20001 H6        -279.5130  -192.8789   421.3129 H6            1 RES     
   20002 H6        -279.3711  -191.7678   422.7101 H6            1 RES     
   20003 C0        -287.3663  -202.8824   403.1801 C0            1 RES     
   20004 C0        -286.5120  -203.6343   404.6382 C0            1 RES     
   20005 C0        -287.1537  -203.2160   405.7971 C0            1 RES     
   20006 S1        -286.3348  -203.5419   407.2719 S1            1 RES     
   20007 C0        -284.9446  -204.2964   406.7686 C0            1 RES     
   20008 C0        -285.1915  -204.3120   405.2329 C0            1 RES     
   20009 C0        -288.0628  -202.0953   405.5541 C0            1 RES     
   20010 C0        -287.4633  -201.7172   404.2094 C0            1 RES     
   20011 C0        -286.5293  -200.7370   404.3463 C0            1 RES     
   20012 C0        -286.4358  -200.1720   405.6159 C0            1 RES     
   20013 S1        -287.6272  -200.7907   406.7728 S1            1 RES     
   20014 H2        -284.3757  -204.6727   404.6180 H2            1 RES     
   20015 H2        -285.7656  -200.5372   403.6126 H2            1 RES     
   20016 N3        -283.3466  -204.1595   410.4267 N3            1 RES     
   20017 C0        -284.0790  -203.9876   409.3156 C0            1 RES     
   20018 C0        -283.8591  -204.6543   408.0198 C0            1 RES     
   20019 C0        -282.6815  -205.5371   408.1548 C0            1 RES     
   20020 N3        -282.1614  -206.3184   407.1558 N3            1 RES     
   20021 S1        -280.8876  -207.1021   407.8897 S1            1 RES     
   20022 N3        -280.8941  -206.5116   409.4328 N3            1 RES     
   20023 C0        -281.9361  -205.6698   409.4087 C0            1 RES     
   20024 C0        -282.2644  -204.9767   410.5480 C0            1 RES     
   20025 H4        -284.8722  -203.2846   409.4413 H4            1 RES     
   20026 C5        -303.3894  -199.5500   392.7699 C5            1 RES     
   20027 C5        -302.1816  -200.0336   393.6220 C5            1 RES     
   20028 C5        -300.7984  -199.8613   392.9127 C5            1 RES     
   20029 C5        -299.4628  -200.0261   393.7887 C5            1 RES     
   20030 C5        -298.9611  -201.4550   394.2710 C5            1 RES     
   20031 C5        -297.7334  -201.6646   395.3782 C5            1 RES     
   20032 C5        -296.1057  -201.5041   395.1361 C5            1 RES     
   20033 C5        -294.7690  -202.0560   396.1303 C5            1 RES     
   20034 C5        -293.9121  -201.3875   397.4452 C5            1 RES     
   20035 C5        -292.6254  -201.8378   398.6224 C5            1 RES     
   20036 C5        -290.8481  -201.8507   398.7479 C5            1 RES     
   20037 C5        -290.5351  -201.9788   397.1482 C5            1 RES     
   20038 C5        -291.1618  -203.1620   396.2785 C5            1 RES     
   20039 C5        -291.2427  -202.9055   394.7114 C5            1 RES     
   20040 C5        -291.6901  -204.1360   393.8327 C5            1 RES     
   20041 C5        -290.8852  -205.4261   394.1026 C5            1 RES     
   20042 C5        -289.3515  -205.2537   393.9835 C5            1 RES     
   20043 C5        -288.6755  -205.9959   392.8248 C5            1 RES     
   20044 C5        -289.1611  -205.5909   391.4373 C5            1 RES     
   20045 C5        -289.4260  -202.0502   400.1039 C5            1 RES     
   20046 C0        -288.8111  -202.8123   401.7988 C0            1 RES     
   20047 C5        -289.5368  -204.1819   401.7756 C5            1 RES     
   20048 C5        -291.0518  -204.1821   401.2463 C5            1 RES     
   20049 C5        -292.0779  -203.8321   402.3377 C5            1 RES     
   20050 C5        -291.8261  -202.5544   403.1712 C5            1 RES     
   20051 C5        -291.6102  -201.2540   402.3667 C5            1 RES     
   20052 C5        -291.7056  -199.9745   403.1875 C5            1 RES     
   20053 C5        -290.7659  -199.9851   404.3937 C5            1 RES     
   20054 C5        -291.0697  -198.8112   405.3189 C5            1 RES     
   20055 C5        -290.3575  -199.0229   406.6480 C5            1 RES     
   20056 C5        -290.7650  -198.0135   407.6967 C5            1 RES     
   20057 C5        -291.3904  -205.5147   400.4950 C5            1 RES     
   20058 C5        -292.6086  -205.6367   399.5011 C5            1 RES     
   20059 C5        -294.0829  -205.7330   399.9796 C5            1 RES     
   20060 C5        -294.2892  -206.8517   401.0090 C5            1 RES     
   20061 C5        -295.7743  -207.1892   401.2715 C5            1 RES     
   20062 C5        -295.9530  -208.0316   402.5539 C5            1 RES     
   20063 C5        -295.1783  -209.3653   402.6028 C5            1 RES     
   20064 C5        -295.6442  -210.4383   401.6010 C5            1 RES     
   20065 C5        -297.1021  -210.9057   401.7813 C5            1 RES     
   20066 C5        -297.3803  -211.5144   403.1586 C5            1 RES     
   20067 H6        -303.3087  -198.4673   392.5208 H6            1 RES     
   20068 H6        -303.4987  -200.1181   391.8216 H6            1 RES     
   20069 H6        -304.3425  -199.6696   393.3390 H6            1 RES     
   20070 H6        -302.1986  -199.4169   394.5448 H6            1 RES     
   20071 H6        -302.3489  -201.0959   393.8921 H6            1 RES     
   20072 H6        -300.7824  -200.4851   391.9904 H6            1 RES     
   20073 H6        -300.8084  -198.8002   392.5662 H6            1 RES     
   20074 H6        -299.6069  -199.3756   394.6730 H6            1 RES     
   20075 H6        -298.6476  -199.6043   393.1672 H6            1 RES     
   20076 H6        -298.7941  -202.0774   393.3604 H6            1 RES     
   20077 H6        -299.8776  -201.8836   394.7430 H6            1 RES     
   20078 H6        -297.8621  -202.7415   395.6264 H6            1 RES     
   20079 H6        -298.0331  -201.0811   396.2657 H6            1 RES     
   20080 H6        -296.0178  -202.1210   394.2072 H6            1 RES     
   20081 H6        -295.9234  -200.4657   394.7907 H6            1 RES     
   20082 H6        -294.0076  -202.1659   395.3304 H6            1 RES     
   20083 H6        -295.0836  -203.0936   396.3735 H6            1 RES     
   20084 H6        -293.6447  -200.3747   397.0793 H6            1 RES     
   20085 H6        -294.7858  -201.2547   398.1152 H6            1 RES     
   20086 H6        -292.9769  -202.8131   398.9726 H6            1 RES     
   20087 H6        -292.8839  -201.1282   399.4194 H6            1 RES     
   20088 H6        -290.7156  -200.7455   398.7510 H6            1 RES     
   20089 H6        -289.4653  -201.8302   396.8989 H6            1 RES     
   20090 H6        -291.0431  -201.0936   396.6816 H6            1 RES     
   20091 H6        -292.2079  -203.3804   396.5713 H6            1 RES     
   20092 H6        -290.5525  -204.0560   396.4830 H6            1 RES     
   20093 H6        -290.2718  -202.5426   394.3349 H6            1 RES     
   20094 H6        -291.9498  -202.0768   394.4735 H6            1 RES     
   20095 H6        -291.6119  -203.8789   392.7485 H6            1 RES     
   20096 H6        -292.7640  -204.3718   394.0165 H6            1 RES     
   20097 H6        -291.1282  -205.7166   395.1435 H6            1 RES     
   20098 H6        -291.2424  -206.2836   393.4869 H6            1 RES     
   20099 H6        -289.0501  -204.1936   393.9527 H6            1 RES     
   20100 H6        -288.9037  -205.6670   394.9114 H6            1 RES     
   20101 H6        -288.8195  -207.0890   392.9542 H6            1 RES     
   20102 H6        -287.5860  -205.7792   392.8908 H6            1 RES     
   20103 H6        -289.0302  -204.5015   391.2723 H6            1 RES     
   20104 H6        -288.5605  -206.1402   390.6795 H6            1 RES     
   20105 H6        -290.2268  -205.8663   391.3003 H6            1 RES     
   20106 H6        -289.2305  -200.9750   400.3200 H6            1 RES     
   20107 H6        -288.5607  -202.2546   399.4384 H6            1 RES     
   20108 H6        -288.9041  -204.7692   401.0828 H6            1 RES     
   20109 H6        -289.4868  -204.6480   402.7793 H6            1 RES     
   20110 H6        -291.2070  -203.4594   400.4673 H6            1 RES     
   20111 H6        -293.0642  -203.7266   401.8521 H6            1 RES     
   20112 H6        -292.1337  -204.6769   403.0499 H6            1 RES     
   20113 H6        -292.7201  -202.4288   403.8168 H6            1 RES     
   20114 H6        -290.9455  -202.7339   403.8229 H6            1 RES     
   20115 H6        -290.6103  -201.2368   401.9803 H6            1 RES     
   20116 H6        -292.3334  -201.1857   401.5383 H6            1 RES     
   20117 H6        -291.4655  -199.0993   402.5398 H6            1 RES     
   20118 H6        -292.7559  -199.8868   403.5287 H6            1 RES     
   20119 H6        -290.9673  -200.9027   404.9779 H6            1 RES     
   20120 H6        -289.6968  -199.9928   404.0799 H6            1 RES     
   20121 H6        -290.7718  -197.8479   404.8490 H6            1 RES     
   20122 H6        -292.1617  -198.8012   405.5179 H6            1 RES     
   20123 H6        -289.2779  -198.9224   406.4738 H6            1 RES     
   20124 H6        -290.6069  -200.0361   407.0442 H6            1 RES     
   20125 H6        -290.4690  -196.9964   407.3725 H6            1 RES     
   20126 H6        -290.2503  -198.2659   408.6486 H6            1 RES     
   20127 H6        -291.8620  -198.0641   407.8585 H6            1 RES     
   20128 H6        -291.3805  -206.3627   401.2028 H6            1 RES     
   20129 H6        -290.5330  -205.6500   399.7974 H6            1 RES     
   20130 H6        -292.5431  -204.8620   398.7139 H6            1 RES     
   20131 H6        -292.4386  -206.5909   398.9564 H6            1 RES     
   20132 H6        -294.4635  -204.7703   400.3800 H6            1 RES     
   20133 H6        -294.6974  -205.9662   399.0763 H6            1 RES     
   20134 H6        -293.8075  -206.5093   401.9473 H6            1 RES     
   20135 H6        -293.7941  -207.7797   400.6521 H6            1 RES     
   20136 H6        -296.2133  -207.7086   400.3885 H6            1 RES     
   20137 H6        -296.3512  -206.2516   401.4268 H6            1 RES     
   20138 H6        -297.0329  -208.2151   402.7364 H6            1 RES     
   20139 H6        -295.5872  -207.4098   403.3992 H6            1 RES     
   20140 H6        -295.2595  -209.7780   403.6289 H6            1 RES     
   20141 H6        -294.0984  -209.1688   402.4416 H6            1 RES     
   20142 H6        -295.5129  -210.0589   400.5658 H6            1 RES     
   20143 H6        -294.9813  -211.3242   401.7188 H6            1 RES     
   20144 H6        -297.8028  -210.0647   401.6021 H6            1 RES     
   20145 H6        -297.3081  -211.6848   401.0154 H6            1 RES     
   20146 H6        -296.7014  -212.3728   403.3493 H6            1 RES     
   20147 H6        -297.2556  -210.7608   403.9629 H6            1 RES     
   20148 H6        -298.4291  -211.8766   403.1983 H6            1 RES     
   20149 C0        -279.2287  -203.1796   414.3598 C0            1 RES     
   20150 C0        -280.9900  -202.6537   414.5655 C0            1 RES     
   20151 C0        -281.7687  -203.7803   414.7983 C0            1 RES     
   20152 S1        -283.4693  -203.5538   414.7045 S1            1 RES     
   20153 C0        -283.6117  -201.9429   414.3304 C0            1 RES     
   20154 C0        -282.1093  -201.5403   414.3119 C0            1 RES     
   20155 C0        -281.0539  -205.0209   414.4956 C0            1 RES     
   20156 C0        -279.9697  -204.3583   413.6613 C0            1 RES     
   20157 C0        -280.2815  -204.3892   412.3370 C0            1 RES     
   20158 C0        -281.4018  -205.1463   412.0031 C0            1 RES     
   20159 S1        -282.1382  -205.9928   413.3748 S1            1 RES     
   20160 H2        -281.8858  -200.5300   413.9908 H2            1 RES     
   20161 H2        -279.8461  -203.7252   411.6084 H2            1 RES     
   20162 N3        -287.5344  -202.2745   413.6551 N3            1 RES     
   20163 C0        -286.2233  -202.4776   413.8555 C0            1 RES     
   20164 C0        -285.2054  -201.4323   414.0638 C0            1 RES     
   20165 C0        -285.8804  -200.1190   414.0009 C0            1 RES     
   20166 N3        -285.2603  -198.9046   414.1414 N3            1 RES     
   20167 S1        -286.5073  -197.8071   414.0152 S1            1 RES     
   20168 N3        -287.8405  -198.7489   413.7590 N3            1 RES     
   20169 C0        -287.3222  -199.9841   413.7801 C0            1 RES     
   20170 C0        -288.1531  -201.0629   413.6017 C0            1 RES     
   20171 H4        -285.9523  -203.5098   413.8418 H4            1 RES     
   20172 C5        -263.4307  -212.4310   420.7668 C5            1 RES     
   20173 C5        -264.7184  -211.6116   420.4689 C5            1 RES     
   20174 C5        -264.5298  -210.5156   419.3692 C5            1 RES     
   20175 C5        -265.8373  -209.8188   418.7502 C5            1 RES     
   20176 C5        -266.6742  -208.7495   419.5762 C5            1 RES     
   20177 C5        -268.1635  -208.1827   419.0884 C5            1 RES     
   20178 C5        -268.4946  -207.0831   417.8989 C5            1 RES     
   20179 C5        -269.9695  -206.1842   417.5882 C5            1 RES     
   20180 C5        -271.3873  -206.5015   416.6943 C5            1 RES     
   20181 C5        -272.9981  -205.7679   416.3605 C5            1 RES     
   20182 C5        -273.7475  -204.5908   415.2526 C5            1 RES     
   20183 C5        -272.4018  -203.7111   414.9547 C5            1 RES     
   20184 C5        -271.5535  -203.0740   416.1478 C5            1 RES     
   20185 C5        -270.0404  -202.7184   415.8125 C5            1 RES     
   20186 C5        -269.2546  -201.9256   416.9261 C5            1 RES     
   20187 C5        -269.9825  -200.6591   417.4273 C5            1 RES     
   20188 C5        -270.3919  -199.6761   416.3038 C5            1 RES     
   20189 C5        -269.6739  -198.3215   416.2955 C5            1 RES     
   20190 C5        -268.1606  -198.4020   416.1273 C5            1 RES     
   20191 C5        -275.5339  -203.9885   414.6635 C5            1 RES     
   20192 C0        -277.4302  -203.7064   415.0586 C0            1 RES     
   20193 C5        -277.3556  -203.3287   416.5602 C5            1 RES     
   20194 C5        -276.3288  -204.1706   417.4615 C5            1 RES     
   20195 C5        -276.9188  -205.4921   417.9830 C5            1 RES     
   20196 C5        -277.5864  -206.4319   416.9526 C5            1 RES     
   20197 C5        -276.7265  -206.8118   415.7274 C5            1 RES     
   20198 C5        -277.2587  -207.9854   414.9154 C5            1 RES     
   20199 C5        -278.7072  -207.7774   414.4720 C5            1 RES     
   20200 C5        -279.2775  -209.0649   413.8860 C5            1 RES     
   20201 C5        -280.7885  -208.9303   413.7556 C5            1 RES     
   20202 C5        -281.4606  -210.2299   413.3760 C5            1 RES     
   20203 C5        -275.7144  -203.2855   418.5990 C5            1 RES     
   20204 C5        -274.3826  -203.6777   419.3469 C5            1 RES     
   20205 C5        -274.3146  -204.7996   420.4187 C5            1 RES     
   20206 C5        -275.3582  -204.6102   421.5270 C5            1 RES     
   20207 C5        -275.1231  -205.5080   422.7627 C5            1 RES     
   20208 C5        -276.3687  -205.5668   423.6743 C5            1 RES     
   20209 C5        -276.8884  -204.2126   424.2008 C5            1 RES     
   20210 C5        -275.9589  -203.4870   425.1914 C5            1 RES     
   20211 C5        -275.6770  -204.2541   426.4985 C5            1 RES     
   20212 C5        -276.9399  -204.5633   427.3073 C5            1 RES     
   20213 H6        -263.0677  -212.9689   419.8613 H6            1 RES     
   20214 H6        -262.6017  -211.8002   421.1526 H6            1 RES     
   20215 H6        -263.6349  -213.2151   421.5350 H6            1 RES     
   20216 H6        -265.4716  -212.3501   420.1236 H6            1 RES     
   20217 H6        -265.0669  -211.1535   421.4166 H6            1 RES     
   20218 H6        -263.7777  -209.7734   419.7206 H6            1 RES     
   20219 H6        -264.0480  -211.0661   418.5261 H6            1 RES     
   20220 H6        -266.5049  -210.6516   418.4555 H6            1 RES     
   20221 H6        -265.4906  -209.3008   417.8336 H6            1 RES     
   20222 H6        -265.9864  -207.9093   419.8317 H6            1 RES     
   20223 H6        -266.8481  -209.2778   420.5442 H6            1 RES     
   20224 H6        -268.5077  -207.6811   420.0199 H6            1 RES     
   20225 H6        -268.7887  -209.0807   418.9442 H6            1 RES     
   20226 H6        -267.7609  -206.2936   418.1985 H6            1 RES     
   20227 H6        -268.0855  -207.4882   416.9506 H6            1 RES     
   20228 H6        -269.5184  -205.3019   417.0885 H6            1 RES     
   20229 H6        -270.2371  -205.8326   418.6077 H6            1 RES     
   20230 H6        -270.9934  -206.8248   415.7087 H6            1 RES     
   20231 H6        -271.6752  -207.4275   417.2323 H6            1 RES     
   20232 H6        -273.3421  -205.5200   417.3693 H6            1 RES     
   20233 H6        -273.5355  -206.6843   416.0831 H6            1 RES     
   20234 H6        -273.6323  -205.1996   414.3278 H6            1 RES     
   20235 H6        -272.5298  -202.9826   414.1291 H6            1 RES     
   20236 H6        -271.6584  -204.4469   414.5482 H6            1 RES     
   20237 H6        -271.4845  -203.7581   417.0166 H6            1 RES     
   20238 H6        -272.0923  -202.1675   416.4643 H6            1 RES     
   20239 H6        -269.9839  -202.1463   414.8714 H6            1 RES     
   20240 H6        -269.4458  -203.6382   415.6038 H6            1 RES     
   20241 H6        -268.2436  -201.6382   416.5481 H6            1 RES     
   20242 H6        -269.0778  -202.5779   417.8126 H6            1 RES     
   20243 H6        -270.9000  -201.0221   417.9306 H6            1 RES     
   20244 H6        -269.4156  -200.1364   418.2319 H6            1 RES     
   20245 H6        -270.3121  -200.1286   415.3015 H6            1 RES     
   20246 H6        -271.4689  -199.4481   416.4462 H6            1 RES     
   20247 H6        -269.9055  -197.7766   417.2346 H6            1 RES     
   20248 H6        -270.0897  -197.7378   415.4441 H6            1 RES     
   20249 H6        -267.8921  -198.9405   415.1950 H6            1 RES     
   20250 H6        -267.7569  -197.3674   416.0695 H6            1 RES     
   20251 H6        -267.6966  -198.9064   416.9994 H6            1 RES     
   20252 H6        -275.6421  -204.6131   413.7476 H6            1 RES     
   20253 H6        -275.2579  -203.0246   414.1859 H6            1 RES     
   20254 H6        -277.0289  -202.2719   416.5187 H6            1 RES     
   20255 H6        -278.3691  -203.3670   417.0056 H6            1 RES     
   20256 H6        -275.4468  -204.4485   416.9154 H6            1 RES     
   20257 H6        -276.1044  -206.0554   418.4721 H6            1 RES     
   20258 H6        -277.6824  -205.2569   418.7483 H6            1 RES     
   20259 H6        -277.8456  -207.3584   417.5061 H6            1 RES     
   20260 H6        -278.5276  -205.9549   416.6075 H6            1 RES     
   20261 H6        -276.7228  -205.9979   415.0295 H6            1 RES     
   20262 H6        -275.6949  -207.0463   416.0352 H6            1 RES     
   20263 H6        -276.6156  -208.1374   414.0174 H6            1 RES     
   20264 H6        -277.1872  -208.8835   415.5601 H6            1 RES     
   20265 H6        -279.3118  -207.5489   415.3698 H6            1 RES     
   20266 H6        -278.7988  -206.9270   413.7579 H6            1 RES     
   20267 H6        -278.8058  -209.2981   412.9059 H6            1 RES     
   20268 H6        -279.0715  -209.8904   414.5990 H6            1 RES     
   20269 H6        -280.9965  -208.1921   412.9695 H6            1 RES     
   20270 H6        -281.2169  -208.6055   414.7338 H6            1 RES     
   20271 H6        -281.1146  -210.5516   412.3739 H6            1 RES     
   20272 H6        -282.5595  -210.0667   413.3563 H6            1 RES     
   20273 H6        -281.2275  -211.0069   414.1336 H6            1 RES     
   20274 H6        -276.4977  -203.0018   419.3243 H6            1 RES     
   20275 H6        -275.3957  -202.3589   418.0699 H6            1 RES     
   20276 H6        -273.5638  -203.8345   418.6195 H6            1 RES     
   20277 H6        -274.0830  -202.7596   419.8976 H6            1 RES     
   20278 H6        -274.4049  -205.8143   419.9780 H6            1 RES     
   20279 H6        -273.2975  -204.7421   420.8772 H6            1 RES     
   20280 H6        -276.3440  -204.8403   421.0743 H6            1 RES     
   20281 H6        -275.3435  -203.5551   421.8735 H6            1 RES     
   20282 H6        -274.2299  -205.1571   423.3296 H6            1 RES     
   20283 H6        -274.9212  -206.5515   422.4363 H6            1 RES     
   20284 H6        -276.1807  -206.2558   424.5247 H6            1 RES     
   20285 H6        -277.1857  -206.0187   423.0716 H6            1 RES     
   20286 H6        -277.8681  -204.3825   424.6921 H6            1 RES     
   20287 H6        -277.0942  -203.5397   423.3431 H6            1 RES     
   20288 H6        -274.9937  -203.2584   424.6924 H6            1 RES     
   20289 H6        -276.4356  -202.5173   425.4570 H6            1 RES     
   20290 H6        -275.1369  -205.1989   426.2835 H6            1 RES     
   20291 H6        -275.0136  -203.6227   427.1287 H6            1 RES     
   20292 H6        -277.4854  -203.6267   427.5508 H6            1 RES     
   20293 H6        -277.6137  -205.2482   426.7531 H6            1 RES     
   20294 H6        -276.6579  -205.0659   428.2564 H6            1 RES     
   20295 C0        -292.4805  -201.5168   410.7657 C0            1 RES     
   20296 C0        -291.9658  -203.1282   411.5139 C0            1 RES     
   20297 C0        -292.0721  -203.0339   412.8957 C0            1 RES     
   20298 S1        -291.3474  -204.3050   413.7962 S1            1 RES     
   20299 C0        -290.7109  -205.2833   412.6159 C0            1 RES     
   20300 C0        -291.1676  -204.5039   411.3496 C0            1 RES     
   20301 C0        -292.2324  -201.6509   413.3466 C0            1 RES     
   20302 C0        -291.7489  -201.0233   412.0493 C0            1 RES     
   20303 C0        -290.4208  -200.7328   412.1095 C0            1 RES     
   20304 C0        -289.8276  -200.8981   413.3588 C0            1 RES     
   20305 S1        -290.9580  -201.3682   414.6400 S1            1 RES     
   20306 H2        -290.7998  -204.8720   410.3993 H2            1 RES     
   20307 H2        -289.8040  -200.5882   411.2376 H2            1 RES     
   20308 N3        -288.7433  -207.5083   415.2864 N3            1 RES     
   20309 C0        -289.4244  -206.5570   414.6295 C0            1 RES     
   20310 C0        -289.8222  -206.5978   413.2110 C0            1 RES     
   20311 C0        -289.3280  -207.8659   412.6347 C0            1 RES     
   20312 N3        -289.4965  -208.2606   411.3329 N3            1 RES     
   20313 S1        -288.7729  -209.7601   411.2777 S1            1 RES     
   20314 N3        -288.2034  -209.9828   412.8126 N3            1 RES     
   20315 C0        -288.5917  -208.8558   413.4243 C0            1 RES     
   20316 C0        -288.2930  -208.6770   414.7528 C0            1 RES     
   20317 H4        -289.6624  -205.7146   415.2402 H4            1 RES     
   20318 C5        -305.3894  -187.2162   408.5146 C5            1 RES     
   20319 C5        -304.5344  -188.5052   408.6758 C5            1 RES     
   20320 C5        -303.4230  -188.6665   407.5874 C5            1 RES     
   20321 C5        -302.2830  -189.7742   407.8152 C5            1 RES     
   20322 C5        -302.5879  -191.3238   407.6366 C5            1 RES     
   20323 C5        -301.5238  -192.5214   408.0952 C5            1 RES     
   20324 C5        -300.1443  -193.0076   407.3243 C5            1 RES     
   20325 C5        -299.1991  -194.4700   407.5429 C5            1 RES     
   20326 C5        -297.9178  -194.9119   408.5788 C5            1 RES     
   20327 C5        -296.9278  -196.3543   409.0070 C5            1 RES     
   20328 C5        -295.4632  -197.2051   408.4538 C5            1 RES     
   20329 C5        -295.5351  -196.7321   406.8903 C5            1 RES     
   20330 C5        -296.8423  -196.9910   406.0109 C5            1 RES     
   20331 C5        -297.0175  -196.0588   404.7347 C5            1 RES     
   20332 C5        -298.2058  -196.4297   403.7669 C5            1 RES     
   20333 C5        -298.2203  -197.9106   403.3290 C5            1 RES     
   20334 C5        -296.8912  -198.4007   402.7048 C5            1 RES     
   20335 C5        -296.9363  -198.7627   401.2157 C5            1 RES     
   20336 C5        -297.3309  -197.6159   400.2916 C5            1 RES     
   20337 C5        -294.1948  -198.5914   409.0625 C5            1 RES     
   20338 C0        -293.8432  -200.2101   410.1053 C0            1 RES     
   20339 C5        -295.1988  -200.9468   409.9542 C5            1 RES     
   20340 C5        -296.5211  -200.0425   410.0502 C5            1 RES     
   20341 C5        -296.9902  -199.8016   411.4954 C5            1 RES     
   20342 C5        -295.9427  -199.2875   412.5098 C5            1 RES     
   20343 C5        -295.1745  -198.0118   412.1006 C5            1 RES     
   20344 C5        -294.4115  -197.3373   413.2332 C5            1 RES     
   20345 C5        -293.4565  -198.2967   413.9442 C5            1 RES     
   20346 C5        -292.9056  -197.6589   415.2154 C5            1 RES     
   20347 C5        -292.2281  -198.7291   416.0604 C5            1 RES     
   20348 C5        -291.8333  -198.2286   417.4309 C5            1 RES     
   20349 C5        -297.6568  -200.5976   409.1245 C5            1 RES     
   20350 C5        -298.8788  -199.7130   408.6652 C5            1 RES     
   20351 C5        -300.0596  -199.3496   409.6063 C5            1 RES     
   20352 C5        -300.6830  -200.5878   410.2633 C5            1 RES     
   20353 C5        -302.0409  -200.3117   410.9475 C5            1 RES     
   20354 C5        -302.4481  -201.4592   411.8979 C5            1 RES     
   20355 C5        -302.5468  -202.8625   411.2637 C5            1 RES     
   20356 C5        -303.6827  -203.0477   410.2404 C5            1 RES     
   20357 C5        -305.1036  -202.8483   410.8041 C5            1 RES     
   20358 C5        -305.4473  -203.8119   411.9434 C5            1 RES     
   20359 H6        -304.7633  -186.2972   408.5814 H6            1 RES     
   20360 H6        -305.9457  -187.1892   407.5534 H6            1 RES     
   20361 H6        -306.1428  -187.1414   409.3351 H6            1 RES     
   20362 H6        -304.0585  -188.4272   409.6755 H6            1 RES     
   20363 H6        -305.2165  -189.3793   408.6655 H6            1 RES     
   20364 H6        -303.9035  -188.7498   406.5863 H6            1 RES     
   20365 H6        -302.8985  -187.6812   407.5957 H6            1 RES     
   20366 H6        -301.8983  -189.5966   408.8382 H6            1 RES     
   20367 H6        -301.4830  -189.5293   407.0880 H6            1 RES     
   20368 H6        -302.9425  -191.4778   406.5901 H6            1 RES     
   20369 H6        -303.4983  -191.4628   408.2676 H6            1 RES     
   20370 H6        -302.1861  -193.4142   408.0471 H6            1 RES     
   20371 H6        -301.3028  -192.3288   409.1592 H6            1 RES     
   20372 H6        -300.5634  -193.1144   406.2927 H6            1 RES     
   20373 H6        -299.4752  -192.1253   407.2556 H6            1 RES     
   20374 H6        -298.7664  -194.5364   406.5231 H6            1 RES     
   20375 H6        -299.9921  -195.2478   407.5709 H6            1 RES     
   20376 H6        -297.1967  -194.0781   408.4530 H6            1 RES     
   20377 H6        -298.4504  -194.7203   409.5326 H6            1 RES     
   20378 H6        -297.6992  -197.1149   409.1612 H6            1 RES     
   20379 H6        -296.6177  -196.0413   410.0127 H6            1 RES     
   20380 H6        -294.7419  -196.4037   408.7302 H6            1 RES     
   20381 H6        -294.6190  -196.9781   406.3168 H6            1 RES     
   20382 H6        -295.5342  -195.6105   406.9263 H6            1 RES     
   20383 H6        -297.7707  -196.8293   406.5935 H6            1 RES     
   20384 H6        -296.8074  -198.0477   405.7036 H6            1 RES     
   20385 H6        -296.0837  -196.0376   404.1484 H6            1 RES     
   20386 H6        -297.1738  -194.9950   405.0297 H6            1 RES     
   20387 H6        -298.1734  -195.7820   402.8575 H6            1 RES     
   20388 H6        -299.1841  -196.2209   404.2588 H6            1 RES     
   20389 H6        -298.4128  -198.4924   404.2517 H6            1 RES     
   20390 H6        -299.0861  -198.1475   402.6684 H6            1 RES     
   20391 H6        -296.0624  -197.6939   402.8755 H6            1 RES     
   20392 H6        -296.6058  -199.3330   403.2355 H6            1 RES     
   20393 H6        -297.6391  -199.6085   401.0639 H6            1 RES     
   20394 H6        -295.9157  -199.1043   400.9326 H6            1 RES     
   20395 H6        -296.6467  -196.7513   400.4159 H6            1 RES     
   20396 H6        -297.2664  -197.9725   399.2402 H6            1 RES     
   20397 H6        -298.3759  -197.2990   400.4861 H6            1 RES     
   20398 H6        -293.4045  -197.9358   409.4945 H6            1 RES     
   20399 H6        -293.7082  -198.8371   408.0950 H6            1 RES     
   20400 H6        -295.1187  -201.3760   408.9370 H6            1 RES     
   20401 H6        -295.2553  -201.7782   410.6840 H6            1 RES     
   20402 H6        -296.3723  -199.0645   409.6324 H6            1 RES     
   20403 H6        -297.8151  -199.0680   411.4645 H6            1 RES     
   20404 H6        -297.3898  -200.7520   411.8970 H6            1 RES     
   20405 H6        -296.4996  -199.0818   413.4475 H6            1 RES     
   20406 H6        -295.2184  -200.1061   412.7047 H6            1 RES     
   20407 H6        -294.4103  -198.2683   411.3937 H6            1 RES     
   20408 H6        -295.8601  -197.2711   411.6589 H6            1 RES     
   20409 H6        -293.8343  -196.4734   412.8289 H6            1 RES     
   20410 H6        -295.1660  -196.9568   413.9496 H6            1 RES     
   20411 H6        -294.0359  -199.1826   414.2657 H6            1 RES     
   20412 H6        -292.6380  -198.6355   413.2684 H6            1 RES     
   20413 H6        -292.2037  -196.8308   414.9720 H6            1 RES     
   20414 H6        -293.7600  -197.2572   415.7992 H6            1 RES     
   20415 H6        -291.3186  -199.0502   415.5353 H6            1 RES     
   20416 H6        -292.9299  -199.5847   416.2062 H6            1 RES     
   20417 H6        -291.0797  -197.4226   417.3325 H6            1 RES     
   20418 H6        -291.4001  -199.0757   418.0050 H6            1 RES     
   20419 H6        -292.7313  -197.8554   417.9661 H6            1 RES     
   20420 H6        -298.0052  -201.5775   409.4968 H6            1 RES     
   20421 H6        -297.1434  -200.7718   408.1517 H6            1 RES     
   20422 H6        -298.5221  -198.7883   408.1735 H6            1 RES     
   20423 H6        -299.3562  -200.2896   407.8433 H6            1 RES     
   20424 H6        -299.7726  -198.6092   410.3818 H6            1 RES     
   20425 H6        -300.8355  -198.8584   408.9703 H6            1 RES     
   20426 H6        -299.9493  -200.9508   411.0114 H6            1 RES     
   20427 H6        -300.8503  -201.3711   409.4938 H6            1 RES     
   20428 H6        -302.8289  -200.1301   410.1805 H6            1 RES     
   20429 H6        -301.9675  -199.3951   411.5726 H6            1 RES     
   20430 H6        -303.4026  -201.2064   412.4062 H6            1 RES     
   20431 H6        -301.6692  -201.5119   412.6888 H6            1 RES     
   20432 H6        -302.6774  -203.6044   412.0776 H6            1 RES     
   20433 H6        -301.5817  -203.1147   410.7781 H6            1 RES     
   20434 H6        -303.5312  -202.3500   409.3901 H6            1 RES     
   20435 H6        -303.6135  -204.0833   409.8392 H6            1 RES     
   20436 H6        -305.2384  -201.8037   411.1520 H6            1 RES     
   20437 H6        -305.8265  -203.0241   409.9779 H6            1 RES     
   20438 H6        -305.3381  -204.8656   411.6086 H6            1 RES     
   20439 H6        -304.7988  -203.6372   412.8261 H6            1 RES     
   20440 H6        -306.4984  -203.6486   412.2620 H6            1 RES     
   20441 C0        -284.2061  -210.3114   417.5100 C0            1 RES     
   20442 C0        -285.3202  -209.2150   418.4990 C0            1 RES     
   20443 C0        -286.5433  -209.8525   418.6642 C0            1 RES     
   20444 S1        -287.8217  -208.8833   419.2791 S1            1 RES     
   20445 C0        -287.1052  -207.3987   419.4730 C0            1 RES     
   20446 C0        -285.6579  -207.7402   419.0164 C0            1 RES     
   20447 C0        -286.6957  -211.0006   417.7695 C0            1 RES     
   20448 C0        -285.5767  -210.5923   416.8252 C0            1 RES     
   20449 C0        -286.0609  -209.8901   415.7648 C0            1 RES     
   20450 C0        -287.4491  -209.8369   415.6653 C0            1 RES     
   20451 S1        -288.2998  -210.7810   416.9004 S1            1 RES     
   20452 H2        -284.9668  -206.9089   418.9456 H2            1 RES     
   20453 H2        -285.4541  -209.2410   415.1550 H2            1 RES     
   20454 N3        -290.6010  -205.6245   420.2377 N3            1 RES     
   20455 C0        -289.6106  -206.4509   419.8680 C0            1 RES     
   20456 C0        -288.1665  -206.1784   419.9791 C0            1 RES     
   20457 C0        -287.9999  -204.8288   420.5580 C0            1 RES     
   20458 N3        -286.7978  -204.2186   420.8064 N3            1 RES     
   20459 S1        -287.2282  -202.7565   421.4788 S1            1 RES     
   20460 N3        -288.8801  -202.7877   421.4729 N3            1 RES     
   20461 C0        -289.1381  -203.9888   420.9382 C0            1 RES     
   20462 C0        -290.4433  -204.3832   420.7743 C0            1 RES     
   20463 H4        -289.9636  -207.3690   419.4537 H4            1 RES     
   20464 C5        -275.4040  -227.3465   414.5872 C5            1 RES     
   20465 C5        -276.0493  -226.0067   415.0423 C5            1 RES     
   20466 C5        -275.4641  -224.7471   414.3232 C5            1 RES     
   20467 C5        -276.2451  -223.3514   414.4668 C5            1 RES     
   20468 C5        -276.2034  -222.5156   415.8180 C5            1 RES     
   20469 C5        -277.1838  -221.1993   416.1066 C5            1 RES     
   20470 C5        -277.0354  -219.6673   415.5026 C5            1 RES     
   20471 C5        -277.7916  -218.1773   416.0391 C5            1 RES     
   20472 C5        -279.2688  -217.4011   415.6850 C5            1 RES     
   20473 C5        -280.2313  -215.9696   416.2034 C5            1 RES     
   20474 C5        -280.3686  -214.2288   415.8491 C5            1 RES     
   20475 C5        -278.8297  -214.0051   415.3438 C5            1 RES     
   20476 C5        -277.5924  -214.4136   416.2665 C5            1 RES     
   20477 C5        -276.2132  -214.6556   415.5130 C5            1 RES     
   20478 C5        -274.9534  -214.8798   416.4343 C5            1 RES     
   20479 C5        -274.7655  -213.7940   417.5163 C5            1 RES     
   20480 C5        -274.7352  -212.3477   416.9654 C5            1 RES     
   20481 C5        -273.3993  -211.6054   417.0872 C5            1 RES     
   20482 C5        -272.2350  -212.2618   416.3535 C5            1 RES     
   20483 C5        -281.5881  -212.7086   416.1693 C5            1 RES     
   20484 C0        -282.9172  -211.8269   417.3040 C0            1 RES     
   20485 C5        -282.4061  -212.2328   418.7101 C5            1 RES     
   20486 C5        -281.8896  -213.7430   418.8771 C5            1 RES     
   20487 C5        -283.0204  -214.7442   419.1698 C5            1 RES     
   20488 C5        -284.2518  -214.7238   418.2350 C5            1 RES     
   20489 C5        -283.9566  -214.8551   416.7249 C5            1 RES     
   20490 C5        -285.1719  -215.1738   415.8640 C5            1 RES     
   20491 C5        -286.3108  -214.1748   416.0719 C5            1 RES     
   20492 C5        -287.5841  -214.6660   415.3911 C5            1 RES     
   20493 C5        -288.7646  -213.8358   415.8766 C5            1 RES     
   20494 C5        -290.0947  -214.3831   415.4118 C5            1 RES     
   20495 C5        -280.7148  -213.8302   419.9101 C5            1 RES     
   20496 C5        -279.7246  -215.0564   419.9602 C5            1 RES     
   20497 C5        -280.1189  -216.4371   420.5517 C5            1 RES     
   20498 C5        -280.6886  -216.3212   421.9714 C5            1 RES     
   20499 C5        -280.7961  -217.6740   422.7108 C5            1 RES     
   20500 C5        -281.6998  -217.5749   423.9596 C5            1 RES     
   20501 C5        -281.2892  -216.5239   425.0123 C5            1 RES     
   20502 C5        -279.9690  -216.8092   425.7521 C5            1 RES     
   20503 C5        -279.9543  -218.1125   426.5753 C5            1 RES     
   20504 C5        -281.0274  -218.1552   427.6668 C5            1 RES     
   20505 H6        -275.5509  -227.5235   413.4972 H6            1 RES     
   20506 H6        -274.3154  -227.3924   414.8037 H6            1 RES     
   20507 H6        -275.8822  -228.2087   415.1110 H6            1 RES     
   20508 H6        -277.1292  -226.0961   414.8018 H6            1 RES     
   20509 H6        -275.9280  -225.9169   416.1407 H6            1 RES     
   20510 H6        -274.3821  -224.6570   414.5704 H6            1 RES     
   20511 H6        -275.5109  -225.0141   413.2404 H6            1 RES     
   20512 H6        -277.2991  -223.5747   414.2116 H6            1 RES     
   20513 H6        -275.8217  -222.6934   413.6815 H6            1 RES     
   20514 H6        -275.1349  -222.2780   416.0332 H6            1 RES     
   20515 H6        -276.4829  -223.2807   416.5813 H6            1 RES     
   20516 H6        -277.0375  -221.0704   417.2020 H6            1 RES     
   20517 H6        -278.2152  -221.5589   415.9494 H6            1 RES     
   20518 H6        -275.9506  -219.5092   415.7248 H6            1 RES     
   20519 H6        -277.0779  -219.7423   414.3965 H6            1 RES     
   20520 H6        -277.0143  -217.4668   415.6889 H6            1 RES     
   20521 H6        -277.6518  -218.2382   417.1397 H6            1 RES     
   20522 H6        -279.2844  -217.3890   414.5757 H6            1 RES     
   20523 H6        -279.9309  -218.2348   415.9956 H6            1 RES     
   20524 H6        -280.2131  -216.0728   417.2926 H6            1 RES     
   20525 H6        -281.2227  -216.3231   415.8907 H6            1 RES     
   20526 H6        -280.7602  -214.3431   414.8134 H6            1 RES     
   20527 H6        -278.6628  -213.0139   414.8767 H6            1 RES     
   20528 H6        -278.6956  -214.7263   414.4946 H6            1 RES     
   20529 H6        -277.7758  -215.3634   416.8067 H6            1 RES     
   20530 H6        -277.4792  -213.6098   417.0104 H6            1 RES     
   20531 H6        -276.0010  -213.8165   414.8298 H6            1 RES     
   20532 H6        -276.2709  -215.5424   414.8396 H6            1 RES     
   20533 H6        -274.0290  -214.9343   415.8097 H6            1 RES     
   20534 H6        -275.0284  -215.8603   416.9594 H6            1 RES     
   20535 H6        -275.6354  -213.8954   418.1945 H6            1 RES     
   20536 H6        -273.8837  -213.9946   418.1677 H6            1 RES     
   20537 H6        -275.0816  -212.2901   415.9202 H6            1 RES     
   20538 H6        -275.4656  -211.7577   417.5574 H6            1 RES     
   20539 H6        -273.1358  -211.4959   418.1601 H6            1 RES     
   20540 H6        -273.5519  -210.5885   416.6618 H6            1 RES     
   20541 H6        -272.4636  -212.3857   415.2748 H6            1 RES     
   20542 H6        -271.3410  -211.6080   416.4549 H6            1 RES     
   20543 H6        -271.9957  -213.2474   416.8025 H6            1 RES     
   20544 H6        -282.1696  -212.7405   415.2197 H6            1 RES     
   20545 H6        -280.9051  -211.8670   415.9275 H6            1 RES     
   20546 H6        -281.5602  -211.5350   418.8611 H6            1 RES     
   20547 H6        -283.1836  -212.0130   419.4679 H6            1 RES     
   20548 H6        -281.4109  -214.1064   417.9872 H6            1 RES     
   20549 H6        -282.5890  -215.7602   419.1339 H6            1 RES     
   20550 H6        -283.3909  -214.5638   420.1966 H6            1 RES     
   20551 H6        -284.8883  -215.5773   418.5484 H6            1 RES     
   20552 H6        -284.8114  -213.7829   418.4197 H6            1 RES     
   20553 H6        -283.6143  -213.9123   416.3462 H6            1 RES     
   20554 H6        -283.1947  -215.6302   416.5446 H6            1 RES     
   20555 H6        -284.8750  -215.1772   414.7894 H6            1 RES     
   20556 H6        -285.5079  -216.1919   416.1432 H6            1 RES     
   20557 H6        -286.5339  -214.1288   417.1544 H6            1 RES     
   20558 H6        -286.0288  -213.1543   415.7250 H6            1 RES     
   20559 H6        -287.4853  -214.6204   414.2839 H6            1 RES     
   20560 H6        -287.7592  -215.7172   415.7017 H6            1 RES     
   20561 H6        -288.6513  -212.8192   415.4767 H6            1 RES     
   20562 H6        -288.7776  -213.8282   416.9926 H6            1 RES     
   20563 H6        -290.1512  -214.3412   414.3063 H6            1 RES     
   20564 H6        -290.9049  -213.7618   415.8502 H6            1 RES     
   20565 H6        -290.2135  -215.4283   415.7660 H6            1 RES     
   20566 H6        -281.0810  -213.5854   420.9232 H6            1 RES     
   20567 H6        -280.0257  -213.0136   419.5962 H6            1 RES     
   20568 H6        -279.2594  -215.2170   418.9692 H6            1 RES     
   20569 H6        -278.8827  -214.7179   420.6025 H6            1 RES     
   20570 H6        -280.8258  -216.9923   419.9004 H6            1 RES     
   20571 H6        -279.1829  -217.0453   420.5950 H6            1 RES     
   20572 H6        -281.6939  -215.8639   421.8713 H6            1 RES     
   20573 H6        -280.0362  -215.6594   422.5796 H6            1 RES     
   20574 H6        -279.7811  -218.0469   422.9813 H6            1 RES     
   20575 H6        -281.2619  -218.4314   422.0433 H6            1 RES     
   20576 H6        -281.7918  -218.5728   424.4380 H6            1 RES     
   20577 H6        -282.7142  -217.2983   423.5998 H6            1 RES     
   20578 H6        -282.1047  -216.4420   425.7594 H6            1 RES     
   20579 H6        -281.2218  -215.5274   424.5294 H6            1 RES     
   20580 H6        -279.1340  -216.8355   425.0208 H6            1 RES     
   20581 H6        -279.7782  -215.9609   426.4466 H6            1 RES     
   20582 H6        -280.0713  -218.9918   425.9093 H6            1 RES     
   20583 H6        -278.9614  -218.1935   427.0688 H6            1 RES     
   20584 H6        -280.9147  -217.2925   428.3577 H6            1 RES     
   20585 H6        -282.0463  -218.1451   427.2285 H6            1 RES     
   20586 H6        -280.9234  -219.0933   428.2517 H6            1 RES     
   20587 C0        -294.6840  -201.5653   419.7492 C0            1 RES     
   20588 C0        -295.0368  -203.3810   419.7467 C0            1 RES     
   20589 C0        -294.8498  -203.8747   421.0315 C0            1 RES     
   20590 S1        -294.8180  -205.5856   421.1847 S1            1 RES     
   20591 C0        -295.0297  -206.1047   419.6223 C0            1 RES     
   20592 C0        -295.1738  -204.7327   418.9035 C0            1 RES     
   20593 C0        -294.1418  -202.9264   421.8925 C0            1 RES     
   20594 C0        -293.6071  -202.0743   420.7529 C0            1 RES     
   20595 C0        -292.3517  -202.4612   420.3977 C0            1 RES     
   20596 C0        -291.7585  -203.4073   421.2302 C0            1 RES     
   20597 S1        -292.7369  -203.8438   422.6418 S1            1 RES     
   20598 H2        -295.2299  -204.7597   417.8219 H2            1 RES     
   20599 H2        -291.9076  -202.2335   419.4425 H2            1 RES     
   20600 N3        -294.2277  -209.8946   420.5952 N3            1 RES     
   20601 C0        -294.3621  -208.5604   420.5470 C0            1 RES     
   20602 C0        -294.9371  -207.7861   419.4326 C0            1 RES     
   20603 C0        -295.3288  -208.7365   418.3707 C0            1 RES     
   20604 N3        -295.8940  -208.3911   417.1707 N3            1 RES     
   20605 S1        -296.1429  -209.8548   416.4152 S1            1 RES     
   20606 N3        -295.5551  -210.9621   417.4915 N3            1 RES     
   20607 C0        -295.1495  -210.1841   418.5040 C0            1 RES     
   20608 C0        -294.5934  -210.7672   419.6161 C0            1 RES     
   20609 H4        -293.9916  -208.0702   421.4197 H4            1 RES     
   20610 C5        -297.6614  -183.7181   426.7370 C5            1 RES     
   20611 C5        -297.6517  -185.1720   426.1851 C5            1 RES     
   20612 C5        -297.0080  -185.3049   424.7659 C5            1 RES     
   20613 C5        -296.6543  -186.7729   424.2198 C5            1 RES     
   20614 C5        -297.7910  -187.7665   423.7228 C5            1 RES     
   20615 C5        -297.5121  -189.3737   423.3819 C5            1 RES     
   20616 C5        -296.7786  -190.0192   422.0482 C5            1 RES     
   20617 C5        -296.7821  -191.6736   421.4626 C5            1 RES     
   20618 C5        -295.8144  -193.0443   421.7707 C5            1 RES     
   20619 C5        -295.7367  -194.7960   421.3590 C5            1 RES     
   20620 C5        -295.1009  -195.8601   420.0790 C5            1 RES     
   20621 C5        -295.1482  -194.7648   418.8659 C5            1 RES     
   20622 C5        -296.5003  -193.9984   418.5007 C5            1 RES     
   20623 C5        -296.3314  -192.6273   417.7133 C5            1 RES     
   20624 C5        -297.6627  -191.9613   417.1933 C5            1 RES     
   20625 C5        -298.5656  -192.9145   416.3801 C5            1 RES     
   20626 C5        -297.8519  -193.6060   415.1932 C5            1 RES     
   20627 C5        -298.3281  -193.2064   413.7918 C5            1 RES     
   20628 C5        -298.1630  -191.7276   413.4590 C5            1 RES     
   20629 C5        -294.7357  -197.7712   419.7394 C5            1 RES     
   20630 C0        -295.1786  -199.6516   420.0550 C0            1 RES     
   20631 C5        -296.7183  -199.5598   420.2099 C5            1 RES     
   20632 C5        -297.2817  -198.3137   421.0498 C5            1 RES     
   20633 C5        -297.2994  -198.5611   422.5681 C5            1 RES     
   20634 C5        -295.9963  -199.0739   423.2233 C5            1 RES     
   20635 C5        -294.7274  -198.2371   422.9501 C5            1 RES     
   20636 C5        -293.5488  -198.5518   423.8620 C5            1 RES     
   20637 C5        -293.1865  -200.0373   423.8537 C5            1 RES     
   20638 C5        -292.1792  -200.3485   424.9559 C5            1 RES     
   20639 C5        -292.0836  -201.8574   425.1364 C5            1 RES     
   20640 C5        -291.2639  -202.2509   426.3438 C5            1 RES     
   20641 C5        -298.6654  -197.8333   420.4935 C5            1 RES     
   20642 C5        -299.2467  -196.4001   420.8010 C5            1 RES     
   20643 C5        -299.8587  -196.0136   422.1750 C5            1 RES     
   20644 C5        -300.9489  -196.9953   422.6238 C5            1 RES     
   20645 C5        -301.7951  -196.4844   423.8117 C5            1 RES     
   20646 C5        -302.6113  -197.6214   424.4653 C5            1 RES     
   20647 C5        -303.5715  -198.3895   423.5330 C5            1 RES     
   20648 C5        -304.7660  -197.5774   422.9988 C5            1 RES     
   20649 C5        -305.7255  -197.0449   424.0815 C5            1 RES     
   20650 C5        -306.3576  -198.1505   424.9317 C5            1 RES     
   20651 H6        -296.6299  -183.3082   426.8319 H6            1 RES     
   20652 H6        -298.2549  -183.0242   426.1044 H6            1 RES     
   20653 H6        -298.1036  -183.6918   427.7619 H6            1 RES     
   20654 H6        -297.0594  -185.7657   426.9122 H6            1 RES     
   20655 H6        -298.6949  -185.5474   426.1739 H6            1 RES     
   20656 H6        -297.6071  -184.7126   424.0378 H6            1 RES     
   20657 H6        -296.0321  -184.7723   424.8664 H6            1 RES     
   20658 H6        -296.0776  -187.2590   425.0304 H6            1 RES     
   20659 H6        -295.9819  -186.6121   423.3533 H6            1 RES     
   20660 H6        -298.3338  -187.2648   422.8872 H6            1 RES     
   20661 H6        -298.5103  -187.7532   424.5764 H6            1 RES     
   20662 H6        -298.5556  -189.7556   423.3247 H6            1 RES     
   20663 H6        -297.0542  -189.7941   424.2939 H6            1 RES     
   20664 H6        -297.3455  -189.4589   421.2635 H6            1 RES     
   20665 H6        -295.7541  -189.5966   421.9970 H6            1 RES     
   20666 H6        -296.6291  -191.4632   420.3838 H6            1 RES     
   20667 H6        -297.8564  -191.9420   421.5545 H6            1 RES     
   20668 H6        -294.7835  -192.6570   421.6357 H6            1 RES     
   20669 H6        -295.9903  -193.0837   422.8650 H6            1 RES     
   20670 H6        -296.7636  -195.1166   421.5591 H6            1 RES     
   20671 H6        -295.1487  -195.1360   422.2216 H6            1 RES     
   20672 H6        -294.0232  -195.6769   420.2889 H6            1 RES     
   20673 H6        -294.6283  -195.1062   417.9484 H6            1 RES     
   20674 H6        -294.5200  -193.9071   419.2250 H6            1 RES     
   20675 H6        -297.0755  -193.7212   419.4062 H6            1 RES     
   20676 H6        -297.1068  -194.7008   417.9082 H6            1 RES     
   20677 H6        -295.6510  -192.7625   416.8561 H6            1 RES     
   20678 H6        -295.8220  -191.8603   418.3422 H6            1 RES     
   20679 H6        -297.4230  -191.0667   416.5690 H6            1 RES     
   20680 H6        -298.2671  -191.5851   418.0511 H6            1 RES     
   20681 H6        -298.8973  -193.6930   417.0948 H6            1 RES     
   20682 H6        -299.5100  -192.4231   416.0502 H6            1 RES     
   20683 H6        -296.7558  -193.4970   415.2424 H6            1 RES     
   20684 H6        -298.0503  -194.6945   415.2826 H6            1 RES     
   20685 H6        -299.3953  -193.4877   413.6718 H6            1 RES     
   20686 H6        -297.7294  -193.7976   413.0636 H6            1 RES     
   20687 H6        -297.1050  -191.4112   413.5670 H6            1 RES     
   20688 H6        -298.4766  -191.5667   412.4042 H6            1 RES     
   20689 H6        -298.8096  -191.1055   414.1111 H6            1 RES     
   20690 H6        -293.6576  -197.8013   420.0183 H6            1 RES     
   20691 H6        -294.6296  -197.7476   418.6342 H6            1 RES     
   20692 H6        -297.0539  -199.4776   419.1583 H6            1 RES     
   20693 H6        -297.1083  -200.5072   420.6312 H6            1 RES     
   20694 H6        -296.6850  -197.4315   420.9121 H6            1 RES     
   20695 H6        -297.5715  -197.6113   423.0615 H6            1 RES     
   20696 H6        -298.0882  -199.3038   422.7927 H6            1 RES     
   20697 H6        -296.1868  -199.0844   424.3166 H6            1 RES     
   20698 H6        -295.8272  -200.1184   422.8870 H6            1 RES     
   20699 H6        -294.3588  -198.4604   421.9684 H6            1 RES     
   20700 H6        -294.9476  -197.1607   423.0319 H6            1 RES     
   20701 H6        -292.6633  -197.9538   423.5438 H6            1 RES     
   20702 H6        -293.8392  -198.2404   424.8848 H6            1 RES     
   20703 H6        -294.0992  -200.6147   424.0935 H6            1 RES     
   20704 H6        -292.8142  -200.3624   422.8552 H6            1 RES     
   20705 H6        -291.1860  -199.9050   424.7227 H6            1 RES     
   20706 H6        -292.5607  -199.9176   425.9051 H6            1 RES     
   20707 H6        -291.6029  -202.2760   424.2420 H6            1 RES     
   20708 H6        -293.1076  -202.2790   425.2754 H6            1 RES     
   20709 H6        -290.2174  -201.9117   426.2127 H6            1 RES     
   20710 H6        -291.2876  -203.3575   426.4414 H6            1 RES     
   20711 H6        -291.7046  -201.8012   427.2580 H6            1 RES     
   20712 H6        -299.4334  -198.6086   420.6648 H6            1 RES     
   20713 H6        -298.4986  -197.7635   419.3946 H6            1 RES     
   20714 H6        -298.5217  -195.6184   420.5053 H6            1 RES     
   20715 H6        -300.0880  -196.2733   420.0854 H6            1 RES     
   20716 H6        -299.0895  -195.9080   422.9682 H6            1 RES     
   20717 H6        -300.3222  -195.0054   422.0461 H6            1 RES     
   20718 H6        -300.4308  -197.9347   422.9046 H6            1 RES     
   20719 H6        -301.6430  -197.1898   421.7789 H6            1 RES     
   20720 H6        -302.4611  -195.6540   423.4814 H6            1 RES     
   20721 H6        -301.1268  -196.0804   424.6032 H6            1 RES     
   20722 H6        -303.1692  -197.2287   425.3416 H6            1 RES     
   20723 H6        -301.8775  -198.3579   424.8577 H6            1 RES     
   20724 H6        -303.9588  -199.2719   424.0821 H6            1 RES     
   20725 H6        -303.0009  -198.7965   422.6729 H6            1 RES     
   20726 H6        -304.3919  -196.7226   422.3970 H6            1 RES     
   20727 H6        -305.3478  -198.2368   422.3169 H6            1 RES     
   20728 H6        -305.2008  -196.3259   424.7435 H6            1 RES     
   20729 H6        -306.5459  -196.4955   423.5705 H6            1 RES     
   20730 H6        -306.9062  -198.8711   424.2882 H6            1 RES     
   20731 H6        -305.5896  -198.6931   425.5200 H6            1 RES     
   20732 H6        -307.0745  -197.7007   425.6505 H6            1 RES     
   20733 C0        -291.7193  -215.0713   420.0510 C0            1 RES     
   20734 C0        -291.8629  -214.1644   421.6567 C0            1 RES     
   20735 C0        -293.1887  -214.1945   422.0702 C0            1 RES     
   20736 S1        -293.5969  -213.1479   423.3700 S1            1 RES     
   20737 C0        -292.1577  -212.3934   423.7086 C0            1 RES     
   20738 C0        -291.2382  -213.0959   422.6690 C0            1 RES     
   20739 C0        -294.0930  -214.6243   421.0029 C0            1 RES     
   20740 C0        -293.1042  -214.3806   419.8744 C0            1 RES     
   20741 C0        -293.2805  -213.1482   419.3248 C0            1 RES     
   20742 C0        -294.4008  -212.4494   419.7681 C0            1 RES     
   20743 S1        -295.4207  -213.3585   420.8966 S1            1 RES     
   20744 H2        -290.2244  -212.7217   422.5928 H2            1 RES     
   20745 H2        -292.5229  -212.6393   418.7516 H2            1 RES     
   20746 N3        -293.9068  -209.8066   426.1991 N3            1 RES     
   20747 C0        -293.6152  -210.7238   425.2641 C0            1 RES     
   20748 C0        -292.2669  -211.1985   424.9053 C0            1 RES     
   20749 C0        -291.2900  -210.4776   425.7479 C0            1 RES     
   20750 N3        -289.9302  -210.6434   425.6987 N3            1 RES     
   20751 S1        -289.3633  -209.6126   426.8784 S1            1 RES     
   20752 N3        -290.7308  -208.9048   427.4775 N3            1 RES     
   20753 C0        -291.6930  -209.4892   426.7511 C0            1 RES     
   20754 C0        -293.0039  -209.1473   426.9761 C0            1 RES     
   20755 H4        -294.4789  -211.0992   424.7618 H4            1 RES     
   20756 C5        -294.4415  -230.9363   409.2293 C5            1 RES     
   20757 C5        -294.1529  -229.8093   410.2615 C5            1 RES     
   20758 C5        -293.0921  -228.7665   409.7784 C5            1 RES     
   20759 C5        -292.9333  -227.3977   410.6028 C5            1 RES     
   20760 C5        -292.2192  -227.3652   412.0224 C5            1 RES     
   20761 C5        -292.2440  -226.0347   413.0254 C5            1 RES     
   20762 C5        -291.3706  -224.6378   412.8855 C5            1 RES     
   20763 C5        -291.0762  -223.3810   414.0745 C5            1 RES     
   20764 C5        -291.9093  -221.9662   414.5378 C5            1 RES     
   20765 C5        -291.8188  -220.6559   415.7702 C5            1 RES     
   20766 C5        -291.0228  -219.0811   416.0176 C5            1 RES     
   20767 C5        -289.7230  -219.3619   415.0662 C5            1 RES     
   20768 C5        -288.7908  -220.6368   415.3006 C5            1 RES     
   20769 C5        -287.9195  -221.0997   414.0537 C5            1 RES     
   20770 C5        -286.8670  -222.2403   414.3323 C5            1 RES     
   20771 C5        -285.9382  -221.9579   415.5334 C5            1 RES     
   20772 C5        -285.2001  -220.5993   415.4591 C5            1 RES     
   20773 C5        -283.6781  -220.6649   415.2873 C5            1 RES     
   20774 C5        -283.2087  -221.3646   414.0165 C5            1 RES     
   20775 C5        -291.1248  -217.5000   417.1969 C5            1 RES     
   20776 C0        -291.5396  -216.7302   418.9481 C0            1 RES     
   20777 C5        -291.1217  -217.8973   419.8789 C5            1 RES     
   20778 C5        -291.5102  -219.3766   419.3931 C5            1 RES     
   20779 C5        -292.9417  -219.7875   419.7784 C5            1 RES     
   20780 C5        -294.0860  -218.8123   419.4178 C5            1 RES     
   20781 C5        -294.1599  -218.3738   417.9389 C5            1 RES     
   20782 C5        -295.4672  -217.7028   417.5383 C5            1 RES     
   20783 C5        -295.8103  -216.5137   418.4363 C5            1 RES     
   20784 C5        -297.2317  -216.0315   418.1656 C5            1 RES     
   20785 C5        -297.6578  -215.0789   419.2745 C5            1 RES     
   20786 C5        -299.1220  -214.7114   419.1989 C5            1 RES     
   20787 C5        -290.4333  -220.4225   419.8418 C5            1 RES     
   20788 C5        -290.2962  -221.8377   419.1599 C5            1 RES     
   20789 C5        -291.2888  -223.0026   419.4242 C5            1 RES     
   20790 C5        -291.4621  -223.2916   420.9209 C5            1 RES     
   20791 C5        -292.1811  -224.6271   421.2172 C5            1 RES     
   20792 C5        -292.6640  -224.7057   422.6824 C5            1 RES     
   20793 C5        -291.5773  -224.5359   423.7647 C5            1 RES     
   20794 C5        -290.5385  -225.6701   423.8431 C5            1 RES     
   20795 C5        -291.1169  -227.0582   424.1824 C5            1 RES     
   20796 C5        -291.8420  -227.1027   425.5304 C5            1 RES     
   20797 H6        -294.8343  -230.5249   408.2715 H6            1 RES     
   20798 H6        -293.5431  -231.5491   409.0025 H6            1 RES     
   20799 H6        -295.2260  -231.6299   409.6167 H6            1 RES     
   20800 H6        -295.1230  -229.2953   410.4244 H6            1 RES     
   20801 H6        -293.8279  -230.2812   411.2108 H6            1 RES     
   20802 H6        -292.1188  -229.2841   409.6209 H6            1 RES     
   20803 H6        -293.4520  -228.4727   408.7635 H6            1 RES     
   20804 H6        -293.9588  -226.9928   410.7041 H6            1 RES     
   20805 H6        -292.3487  -226.7229   409.9457 H6            1 RES     
   20806 H6        -291.1804  -227.7477   411.8846 H6            1 RES     
   20807 H6        -292.7492  -228.1774   412.5754 H6            1 RES     
   20808 H6        -291.8774  -226.4857   413.9741 H6            1 RES     
   20809 H6        -293.3110  -225.7895   413.1648 H6            1 RES     
   20810 H6        -290.3613  -225.0925   412.7247 H6            1 RES     
   20811 H6        -291.6242  -224.1859   411.9046 H6            1 RES     
   20812 H6        -290.1037  -223.0149   413.6848 H6            1 RES     
   20813 H6        -290.8193  -223.9794   414.9748 H6            1 RES     
   20814 H6        -292.0932  -221.4569   413.5694 H6            1 RES     
   20815 H6        -292.8624  -222.4616   414.8137 H6            1 RES     
   20816 H6        -291.6864  -221.2285   416.6933 H6            1 RES     
   20817 H6        -292.8745  -220.3546   415.7595 H6            1 RES     
   20818 H6        -291.5721  -218.5370   415.2169 H6            1 RES     
   20819 H6        -289.1122  -218.4554   414.8821 H6            1 RES     
   20820 H6        -290.1494  -219.6057   414.0572 H6            1 RES     
   20821 H6        -289.3805  -221.5361   415.5673 H6            1 RES     
   20822 H6        -288.1336  -220.3910   416.1490 H6            1 RES     
   20823 H6        -287.3905  -220.2357   413.6178 H6            1 RES     
   20824 H6        -288.5661  -221.4660   413.2225 H6            1 RES     
   20825 H6        -286.2424  -222.4134   413.4226 H6            1 RES     
   20826 H6        -287.3875  -223.2046   414.5364 H6            1 RES     
   20827 H6        -286.5961  -221.9542   416.4245 H6            1 RES     
   20828 H6        -285.2248  -222.7932   415.7214 H6            1 RES     
   20829 H6        -285.6188  -219.9369   414.6834 H6            1 RES     
   20830 H6        -285.3747  -220.0799   416.4245 H6            1 RES     
   20831 H6        -283.2301  -221.1728   416.1670 H6            1 RES     
   20832 H6        -283.3073  -219.6159   415.2661 H6            1 RES     
   20833 H6        -283.6371  -220.8807   413.1145 H6            1 RES     
   20834 H6        -282.0999  -221.2950   413.9649 H6            1 RES     
   20835 H6        -283.4875  -222.4380   414.0353 H6            1 RES     
   20836 H6        -291.7698  -216.8460   416.5666 H6            1 RES     
   20837 H6        -290.1393  -217.0383   416.9760 H6            1 RES     
   20838 H6        -290.0198  -217.7941   419.9017 H6            1 RES     
   20839 H6        -291.5134  -217.7193   420.8997 H6            1 RES     
   20840 H6        -291.4633  -219.4757   418.3248 H6            1 RES     
   20841 H6        -293.1584  -220.7539   419.2897 H6            1 RES     
   20842 H6        -292.9797  -219.9396   420.8736 H6            1 RES     
   20843 H6        -295.0287  -219.3357   419.6809 H6            1 RES     
   20844 H6        -293.9919  -217.9140   420.0632 H6            1 RES     
   20845 H6        -293.4185  -217.6219   417.7535 H6            1 RES     
   20846 H6        -293.9962  -219.2343   417.2705 H6            1 RES     
   20847 H6        -295.3989  -217.3590   416.4800 H6            1 RES     
   20848 H6        -296.2612  -218.4720   417.6118 H6            1 RES     
   20849 H6        -295.7934  -216.8604   419.4867 H6            1 RES     
   20850 H6        -295.0699  -215.6887   418.3240 H6            1 RES     
   20851 H6        -297.3033  -215.5475   417.1665 H6            1 RES     
   20852 H6        -297.9076  -216.9115   418.1973 H6            1 RES     
   20853 H6        -297.0659  -214.1589   419.1770 H6            1 RES     
   20854 H6        -297.4852  -215.5633   420.2651 H6            1 RES     
   20855 H6        -299.3222  -214.1625   418.2577 H6            1 RES     
   20856 H6        -299.3690  -214.0642   420.0677 H6            1 RES     
   20857 H6        -299.7416  -215.6310   419.2498 H6            1 RES     
   20858 H6        -290.4342  -220.5203   420.9421 H6            1 RES     
   20859 H6        -289.4682  -219.9509   419.5478 H6            1 RES     
   20860 H6        -290.1642  -221.7279   418.0669 H6            1 RES     
   20861 H6        -289.3180  -222.2313   419.5123 H6            1 RES     
   20862 H6        -292.2783  -222.8335   418.9505 H6            1 RES     
   20863 H6        -290.8545  -223.9092   418.9371 H6            1 RES     
   20864 H6        -292.0457  -222.4467   421.3395 H6            1 RES     
   20865 H6        -290.4649  -223.3343   421.4080 H6            1 RES     
   20866 H6        -291.5156  -225.4862   420.9697 H6            1 RES     
   20867 H6        -293.0885  -224.7150   420.5807 H6            1 RES     
   20868 H6        -293.2156  -225.6555   422.8465 H6            1 RES     
   20869 H6        -293.3969  -223.8822   422.8227 H6            1 RES     
   20870 H6        -292.0782  -224.4439   424.7499 H6            1 RES     
   20871 H6        -291.0473  -223.5744   423.6052 H6            1 RES     
   20872 H6        -289.9885  -225.7344   422.8808 H6            1 RES     
   20873 H6        -289.8012  -225.4019   424.6322 H6            1 RES     
   20874 H6        -291.8067  -227.3958   423.3820 H6            1 RES     
   20875 H6        -290.2718  -227.7792   424.2250 H6            1 RES     
   20876 H6        -291.1610  -226.7871   426.3495 H6            1 RES     
   20877 H6        -292.7388  -226.4500   425.5254 H6            1 RES     
   20878 H6        -292.1833  -228.1396   425.7332 H6            1 RES     
   20879 C0        -295.0699  -204.6226   428.4708 C0            1 RES     
   20880 C0        -296.3648  -205.8808   428.0690 C0            1 RES     
   20881 C0        -296.2797  -206.9192   428.9877 C0            1 RES     
   20882 S1        -297.1775  -208.3347   428.6110 S1            1 RES     
   20883 C0        -297.8887  -207.9513   427.1610 C0            1 RES     
   20884 C0        -297.3611  -206.4990   426.9818 C0            1 RES     
   20885 C0        -295.0377  -206.8755   429.7606 C0            1 RES     
   20886 C0        -294.3114  -205.9411   428.8067 C0            1 RES     
   20887 C0        -293.5575  -206.6392   427.9144 C0            1 RES     
   20888 C0        -293.4640  -208.0085   428.1514 C0            1 RES     
   20889 S1        -294.2786  -208.5440   429.6313 S1            1 RES     
   20890 H2        -297.5953  -206.0145   426.0415 H2            1 RES     
   20891 H2        -293.2218  -206.2333   426.9742 H2            1 RES     
   20892 N3        -299.1784  -211.6917   426.6133 N3            1 RES     
   20893 C0        -298.5563  -210.5711   427.0106 C0            1 RES     
   20894 C0        -298.7754  -209.2184   426.4682 C0            1 RES     
   20895 C0        -299.7924  -209.3141   425.4001 C0            1 RES     
   20896 N3        -300.2550  -208.2619   424.6532 N3            1 RES     
   20897 S1        -301.3909  -208.9570   423.6522 S1            1 RES     
   20898 N3        -301.3519  -210.5579   424.0589 N3            1 RES     
   20899 C0        -300.4271  -210.5808   425.0280 C0            1 RES     
   20900 C0        -300.1177  -211.7751   425.6313 C0            1 RES     
   20901 H4        -297.8420  -210.7406   427.7853 H4            1 RES     
   20902 C5        -286.4884  -192.5041   440.9493 C5            1 RES     
   20903 C5        -287.3748  -193.3961   440.0344 C5            1 RES     
   20904 C5        -287.1503  -193.1532   438.5058 C5            1 RES     
   20905 C5        -287.7628  -194.2108   437.4643 C5            1 RES     
   20906 C5        -289.3216  -194.2623   437.1581 C5            1 RES     
   20907 C5        -290.0394  -195.4865   436.2846 C5            1 RES     
   20908 C5        -290.0119  -195.7209   434.6481 C5            1 RES     
   20909 C5        -291.0258  -196.7484   433.6499 C5            1 RES     
   20910 C5        -290.9458  -198.3809   433.1617 C5            1 RES     
   20911 C5        -291.9193  -199.5974   432.2581 C5            1 RES     
   20912 C5        -292.1951  -200.1387   430.5831 C5            1 RES     
   20913 C5        -291.8211  -198.7250   429.8515 C5            1 RES     
   20914 C5        -292.5592  -197.3682   430.2556 C5            1 RES     
   20915 C5        -291.7875  -196.0243   429.8996 C5            1 RES     
   20916 C5        -292.5891  -194.6862   430.1302 C5            1 RES     
   20917 C5        -293.9853  -194.6688   429.4703 C5            1 RES     
   20918 C5        -293.9760  -194.9954   427.9572 C5            1 RES     
   20919 C5        -294.3682  -193.8508   427.0157 C5            1 RES     
   20920 C5        -293.4670  -192.6233   427.0931 C5            1 RES     
   20921 C5        -293.0106  -201.6385   429.5898 C5            1 RES     
   20922 C0        -294.3640  -203.0486   429.4830 C0            1 RES     
   20923 C5        -295.5458  -202.3659   430.2181 C5            1 RES     
   20924 C5        -295.1805  -201.5193   431.5316 C5            1 RES     
   20925 C5        -295.0887  -202.3791   432.8040 C5            1 RES     
   20926 C5        -294.2035  -203.6455   432.7477 C5            1 RES     
   20927 C5        -292.7472  -203.4323   432.2803 C5            1 RES     
   20928 C5        -291.8127  -204.6034   432.5544 C5            1 RES     
   20929 C5        -292.3416  -205.9174   431.9785 C5            1 RES     
   20930 C5        -291.5146  -207.0947   432.4849 C5            1 RES     
   20931 C5        -292.2440  -208.3931   432.1676 C5            1 RES     
   20932 C5        -291.5989  -209.5985   432.8124 C5            1 RES     
   20933 C5        -296.1336  -200.2865   431.6955 C5            1 RES     
   20934 C5        -295.7646  -199.0494   432.6011 C5            1 RES     
   20935 C5        -295.8299  -199.0886   434.1523 C5            1 RES     
   20936 C5        -297.1924  -199.5716   434.6658 C5            1 RES     
   20937 C5        -297.4099  -199.3278   436.1763 C5            1 RES     
   20938 C5        -298.6019  -200.1438   436.7232 C5            1 RES     
   20939 C5        -299.9614  -199.9041   436.0337 C5            1 RES     
   20940 C5        -300.5724  -198.5061   436.2437 C5            1 RES     
   20941 C5        -300.8874  -198.1486   437.7098 C5            1 RES     
   20942 C5        -301.8801  -199.1090   438.3708 C5            1 RES     
   20943 H6        -285.4035  -192.6823   440.7697 H6            1 RES     
   20944 H6        -286.6899  -191.4200   440.8149 H6            1 RES     
   20945 H6        -286.6706  -192.7437   442.0245 H6            1 RES     
   20946 H6        -287.1036  -194.4436   440.2819 H6            1 RES     
   20947 H6        -288.4368  -193.2230   440.3023 H6            1 RES     
   20948 H6        -287.4282  -192.1034   438.2597 H6            1 RES     
   20949 H6        -286.0420  -193.2138   438.3876 H6            1 RES     
   20950 H6        -287.4313  -195.2047   437.8225 H6            1 RES     
   20951 H6        -287.2634  -193.9974   436.4979 H6            1 RES     
   20952 H6        -289.6208  -193.2602   436.7698 H6            1 RES     
   20953 H6        -289.7648  -194.3137   438.1814 H6            1 RES     
   20954 H6        -291.1124  -195.2979   436.5100 H6            1 RES     
   20955 H6        -289.7521  -196.4217   436.7954 H6            1 RES     
   20956 H6        -290.2902  -194.6849   434.3308 H6            1 RES     
   20957 H6        -288.9492  -195.8212   434.3460 H6            1 RES     
   20958 H6        -290.9572  -196.1724   432.7038 H6            1 RES     
   20959 H6        -292.0372  -196.5239   434.0515 H6            1 RES     
   20960 H6        -289.9108  -198.4744   432.7730 H6            1 RES     
   20961 H6        -290.9357  -198.8203   434.1799 H6            1 RES     
   20962 H6        -292.9036  -199.4827   432.7222 H6            1 RES     
   20963 H6        -291.4892  -200.5056   432.7007 H6            1 RES     
   20964 H6        -291.1797  -200.5652   430.4214 H6            1 RES     
   20965 H6        -291.7329  -198.8129   428.7501 H6            1 RES     
   20966 H6        -290.7751  -198.4936   430.1853 H6            1 RES     
   20967 H6        -292.7301  -197.3006   431.3483 H6            1 RES     
   20968 H6        -293.5389  -197.3844   429.7535 H6            1 RES     
   20969 H6        -291.4443  -196.0492   428.8519 H6            1 RES     
   20970 H6        -290.8455  -195.9310   430.4888 H6            1 RES     
   20971 H6        -291.9976  -193.8173   429.7524 H6            1 RES     
   20972 H6        -292.7366  -194.5073   431.2206 H6            1 RES     
   20973 H6        -294.5731  -195.4466   429.9959 H6            1 RES     
   20974 H6        -294.5371  -193.7222   429.6738 H6            1 RES     
   20975 H6        -293.0125  -195.4165   427.6253 H6            1 RES     
   20976 H6        -294.7271  -195.7959   427.7917 H6            1 RES     
   20977 H6        -295.4150  -193.5454   427.2241 H6            1 RES     
   20978 H6        -294.3237  -194.2523   425.9788 H6            1 RES     
   20979 H6        -292.4103  -192.8920   426.8879 H6            1 RES     
   20980 H6        -293.8031  -191.8906   426.3270 H6            1 RES     
   20981 H6        -293.5458  -192.1427   428.0897 H6            1 RES     
   20982 H6        -292.1021  -202.2620   429.4264 H6            1 RES     
   20983 H6        -293.0881  -201.1758   428.5833 H6            1 RES     
   20984 H6        -295.9430  -201.6863   429.4400 H6            1 RES     
   20985 H6        -296.3219  -203.1193   430.4574 H6            1 RES     
   20986 H6        -294.2263  -201.0341   431.4464 H6            1 RES     
   20987 H6        -294.7053  -201.7380   433.6174 H6            1 RES     
   20988 H6        -296.1085  -202.7093   433.0779 H6            1 RES     
   20989 H6        -294.1895  -204.0554   433.7790 H6            1 RES     
   20990 H6        -294.6983  -204.3847   432.0834 H6            1 RES     
   20991 H6        -292.7273  -203.3328   431.2130 H6            1 RES     
   20992 H6        -292.3173  -202.5325   432.7486 H6            1 RES     
   20993 H6        -290.8091  -204.3870   432.1198 H6            1 RES     
   20994 H6        -291.7133  -204.6870   433.6546 H6            1 RES     
   20995 H6        -293.3686  -206.0709   432.3600 H6            1 RES     
   20996 H6        -292.3779  -205.8915   430.8652 H6            1 RES     
   20997 H6        -290.4950  -207.0841   432.0401 H6            1 RES     
   20998 H6        -291.4352  -207.0123   433.5890 H6            1 RES     
   20999 H6        -292.2269  -208.5341   431.0786 H6            1 RES     
   21000 H6        -293.2917  -208.3313   432.5472 H6            1 RES     
   21001 H6        -290.5773  -209.7380   432.4073 H6            1 RES     
   21002 H6        -292.2160  -210.4938   432.5839 H6            1 RES     
   21003 H6        -291.5631  -209.4597   433.9131 H6            1 RES     
   21004 H6        -297.1631  -200.6277   431.9051 H6            1 RES     
   21005 H6        -296.1348  -199.8173   430.6855 H6            1 RES     
   21006 H6        -294.7866  -198.6290   432.2997 H6            1 RES     
   21007 H6        -296.4962  -198.2610   432.3199 H6            1 RES     
   21008 H6        -295.0159  -199.6986   434.5966 H6            1 RES     
   21009 H6        -295.6702  -198.0409   434.5054 H6            1 RES     
   21010 H6        -297.2450  -200.6574   434.4465 H6            1 RES     
   21011 H6        -298.0027  -199.0412   434.1221 H6            1 RES     
   21012 H6        -297.5465  -198.2396   436.3751 H6            1 RES     
   21013 H6        -296.5132  -199.6598   436.7437 H6            1 RES     
   21014 H6        -298.6993  -199.9809   437.8174 H6            1 RES     
   21015 H6        -298.3479  -201.2164   436.5813 H6            1 RES     
   21016 H6        -300.6787  -200.6647   436.4036 H6            1 RES     
   21017 H6        -299.8589  -200.0910   434.9449 H6            1 RES     
   21018 H6        -299.8896  -197.7377   435.8241 H6            1 RES     
   21019 H6        -301.5225  -198.4600   435.6662 H6            1 RES     
   21020 H6        -299.9541  -198.1142   438.3084 H6            1 RES     
   21021 H6        -301.3348  -197.1310   437.7246 H6            1 RES     
   21022 H6        -302.8307  -199.1423   437.7969 H6            1 RES     
   21023 H6        -301.4592  -200.1325   438.4455 H6            1 RES     
   21024 H6        -302.1009  -198.7613   439.4020 H6            1 RES     
   21025 C0        -300.0863  -216.5922   423.6897 C0            1 RES     
   21026 C0        -299.4434  -216.5356   425.4231 C0            1 RES     
   21027 C0        -300.4766  -216.1573   426.2711 C0            1 RES     
   21028 S1        -300.0214  -215.7390   427.8741 S1            1 RES     
   21029 C0        -298.3735  -215.9372   427.8585 C0            1 RES     
   21030 C0        -298.1786  -216.4286   426.3955 C0            1 RES     
   21031 C0        -301.6246  -215.6185   425.5407 C0            1 RES     
   21032 C0        -300.8629  -215.3637   424.2501 C0            1 RES     
   21033 C0        -300.4119  -214.0811   424.1913 C0            1 RES     
   21034 C0        -300.8684  -213.2388   425.2022 C0            1 RES     
   21035 S1        -302.0244  -213.9983   426.3100 S1            1 RES     
   21036 H2        -297.1554  -216.5510   426.0613 H2            1 RES     
   21037 H2        -299.6030  -213.7643   423.5535 H2            1 RES     
   21038 N3        -297.9688  -214.2555   431.4587 N3            1 RES     
   21039 C0        -298.3890  -214.6835   430.2584 C0            1 RES     
   21040 C0        -297.6085  -215.4895   429.3028 C0            1 RES     
   21041 C0        -296.2758  -215.7337   429.8933 C0            1 RES     
   21042 N3        -295.2650  -216.4416   429.2965 N3            1 RES     
   21043 S1        -294.0416  -216.4129   430.4269 S1            1 RES     
   21044 N3        -294.6700  -215.5236   431.6695 N3            1 RES     
   21045 C0        -295.8962  -215.2312   431.2159 C0            1 RES     
   21046 C0        -296.7413  -214.4858   432.0009 C0            1 RES     
   21047 H4        -299.3830  -214.3714   430.0267 H4            1 RES     
   21048 C5        -312.8389  -222.9447   410.5279 C5            1 RES     
   21049 C5        -311.8130  -222.6526   411.6596 C5            1 RES     
   21050 C5        -310.4461  -222.0937   411.1447 C5            1 RES     
   21051 C5        -309.4255  -221.4634   412.2121 C5            1 RES     
   21052 C5        -308.5966  -222.3844   413.2076 C5            1 RES     
   21053 C5        -307.7185  -221.7823   414.4896 C5            1 RES     
   21054 C5        -306.2533  -221.0172   414.4501 C5            1 RES     
   21055 C5        -305.1256  -220.6961   415.7558 C5            1 RES     
   21056 C5        -304.9475  -219.4315   416.8869 C5            1 RES     
   21057 C5        -303.9496  -218.9981   418.3223 C5            1 RES     
   21058 C5        -302.3870  -218.2322   418.7048 C5            1 RES     
   21059 C5        -301.6335  -218.6023   417.3016 C5            1 RES     
   21060 C5        -301.5413  -220.1117   416.7895 C5            1 RES     
   21061 C5        -301.2862  -220.3031   415.2318 C5            1 RES     
   21062 C5        -301.0142  -221.7807   414.7533 C5            1 RES     
   21063 C5        -299.9065  -222.5047   415.5494 C5            1 RES     
   21064 C5        -298.5625  -221.7388   415.6068 C5            1 RES     
   21065 C5        -297.3833  -222.3858   414.8710 C5            1 RES     
   21066 C5        -297.5915  -222.5736   413.3723 C5            1 RES     
   21067 C5        -301.4048  -217.4790   420.2440 C5            1 RES     
   21068 C0        -301.0360  -217.4742   422.1663 C0            1 RES     
   21069 C5        -301.1922  -218.9821   422.4905 C5            1 RES     
   21070 C5        -302.4075  -219.7475   421.7744 C5            1 RES     
   21071 C5        -303.7426  -219.6067   422.5255 C5            1 RES     
   21072 C5        -304.1945  -218.1811   422.9175 C5            1 RES     
   21073 C5        -304.2489  -217.1494   421.7697 C5            1 RES     
   21074 C5        -305.0089  -215.8710   422.0982 C5            1 RES     
   21075 C5        -304.4860  -215.1918   423.3644 C5            1 RES     
   21076 C5        -305.4231  -214.0679   423.7946 C5            1 RES     
   21077 C5        -305.0652  -213.6302   425.2084 C5            1 RES     
   21078 C5        -306.0695  -212.6635   425.7929 C5            1 RES     
   21079 C5        -302.0357  -221.2376   421.4644 C5            1 RES     
   21080 C5        -302.8176  -222.0981   420.3990 C5            1 RES     
   21081 C5        -304.2315  -222.6850   420.6602 C5            1 RES     
   21082 C5        -304.2932  -223.4990   421.9591 C5            1 RES     
   21083 C5        -305.5732  -224.3539   422.0972 C5            1 RES     
   21084 C5        -305.7762  -224.8531   423.5448 C5            1 RES     
   21085 C5        -304.6210  -225.6817   424.1448 C5            1 RES     
   21086 C5        -304.3887  -227.0594   423.4967 C5            1 RES     
   21087 C5        -305.5761  -228.0365   423.6050 C5            1 RES     
   21088 C5        -305.9767  -228.3501   425.0493 C5            1 RES     
   21089 H6        -313.0854  -222.0249   409.9498 H6            1 RES     
   21090 H6        -312.4813  -223.7182   409.8153 H6            1 RES     
   21091 H6        -313.8020  -223.3109   410.9579 H6            1 RES     
   21092 H6        -312.2943  -221.8959   412.3137 H6            1 RES     
   21093 H6        -311.6569  -223.5857   412.2378 H6            1 RES     
   21094 H6        -309.9633  -222.8568   410.4932 H6            1 RES     
   21095 H6        -310.7400  -221.2546   410.4697 H6            1 RES     
   21096 H6        -310.0224  -220.7399   412.8006 H6            1 RES     
   21097 H6        -308.6794  -220.9036   411.6132 H6            1 RES     
   21098 H6        -307.9822  -223.0801   412.5887 H6            1 RES     
   21099 H6        -309.3910  -223.0290   413.6545 H6            1 RES     
   21100 H6        -307.5169  -222.7173   415.0578 H6            1 RES     
   21101 H6        -308.4317  -221.1819   415.0802 H6            1 RES     
   21102 H6        -305.7068  -221.7458   413.8007 H6            1 RES     
   21103 H6        -306.3673  -220.1170   413.8118 H6            1 RES     
   21104 H6        -304.1909  -220.6671   415.1582 H6            1 RES     
   21105 H6        -305.1031  -221.6761   416.2791 H6            1 RES     
   21106 H6        -304.9706  -218.5229   416.2505 H6            1 RES     
   21107 H6        -305.9562  -219.5193   417.3392 H6            1 RES     
   21108 H6        -304.0108  -219.9130   418.9193 H6            1 RES     
   21109 H6        -304.6466  -218.2922   418.7929 H6            1 RES     
   21110 H6        -302.6624  -217.2096   418.3620 H6            1 RES     
   21111 H6        -300.6617  -218.0837   417.1774 H6            1 RES     
   21112 H6        -302.2787  -218.1555   416.4995 H6            1 RES     
   21113 H6        -302.4786  -220.6707   416.9808 H6            1 RES     
   21114 H6        -300.7322  -220.5875   417.3651 H6            1 RES     
   21115 H6        -300.4452  -219.6697   414.9037 H6            1 RES     
   21116 H6        -302.1507  -219.9335   414.6323 H6            1 RES     
   21117 H6        -300.7459  -221.7871   413.6690 H6            1 RES     
   21118 H6        -301.9411  -222.3931   414.8447 H6            1 RES     
   21119 H6        -300.2988  -222.6073   416.5802 H6            1 RES     
   21120 H6        -299.7566  -223.5543   415.2061 H6            1 RES     
   21121 H6        -298.6616  -220.6929   415.2722 H6            1 RES     
   21122 H6        -298.2624  -221.6860   416.6743 H6            1 RES     
   21123 H6        -297.1579  -223.3704   415.3316 H6            1 RES     
   21124 H6        -296.5024  -221.7226   415.0211 H6            1 RES     
   21125 H6        -297.8179  -221.6064   412.8778 H6            1 RES     
   21126 H6        -296.6557  -222.9861   412.9355 H6            1 RES     
   21127 H6        -298.4113  -223.2954   413.1789 H6            1 RES     
   21128 H6        -301.6701  -216.4044   420.1190 H6            1 RES     
   21129 H6        -300.3793  -217.4563   419.8183 H6            1 RES     
   21130 H6        -300.2315  -219.3984   422.1315 H6            1 RES     
   21131 H6        -301.2498  -219.1241   423.5876 H6            1 RES     
   21132 H6        -302.5954  -219.3706   420.7865 H6            1 RES     
   21133 H6        -304.5336  -220.0470   421.8929 H6            1 RES     
   21134 H6        -303.6822  -220.1953   423.4604 H6            1 RES     
   21135 H6        -305.2123  -218.2896   423.3466 H6            1 RES     
   21136 H6        -303.5162  -217.8093   423.7139 H6            1 RES     
   21137 H6        -303.2563  -216.8084   421.5507 H6            1 RES     
   21138 H6        -304.6994  -217.5952   420.8685 H6            1 RES     
   21139 H6        -304.9323  -215.1628   421.2405 H6            1 RES     
   21140 H6        -306.0719  -216.1524   422.2330 H6            1 RES     
   21141 H6        -304.4960  -215.9363   424.1826 H6            1 RES     
   21142 H6        -303.4421  -214.8260   423.2316 H6            1 RES     
   21143 H6        -305.3735  -213.2151   423.0820 H6            1 RES     
   21144 H6        -306.4578  -214.4694   423.8164 H6            1 RES     
   21145 H6        -304.0875  -213.1313   425.1714 H6            1 RES     
   21146 H6        -305.0339  -214.5242   425.8758 H6            1 RES     
   21147 H6        -306.0797  -211.7290   425.1981 H6            1 RES     
   21148 H6        -305.7732  -212.4362   426.8393 H6            1 RES     
   21149 H6        -307.0771  -213.1291   425.7991 H6            1 RES     
   21150 H6        -301.9142  -221.8025   422.4059 H6            1 RES     
   21151 H6        -301.0332  -221.1657   420.9847 H6            1 RES     
   21152 H6        -302.8242  -221.5850   419.4187 H6            1 RES     
   21153 H6        -302.1802  -222.9935   420.2313 H6            1 RES     
   21154 H6        -305.0219  -221.9058   420.6596 H6            1 RES     
   21155 H6        -304.4574  -223.3669   419.8047 H6            1 RES     
   21156 H6        -304.2344  -222.7688   422.7917 H6            1 RES     
   21157 H6        -303.4243  -224.1892   422.0057 H6            1 RES     
   21158 H6        -305.5455  -225.2074   421.3809 H6            1 RES     
   21159 H6        -306.4650  -223.7387   421.8474 H6            1 RES     
   21160 H6        -306.7268  -225.4227   423.6168 H6            1 RES     
   21161 H6        -305.8958  -223.9500   424.1813 H6            1 RES     
   21162 H6        -304.8210  -225.8268   425.2259 H6            1 RES     
   21163 H6        -303.6807  -225.0956   424.0883 H6            1 RES     
   21164 H6        -304.1293  -226.9247   422.4256 H6            1 RES     
   21165 H6        -303.5112  -227.5267   423.9967 H6            1 RES     
   21166 H6        -306.4549  -227.6392   423.0571 H6            1 RES     
   21167 H6        -305.2786  -228.9906   423.1180 H6            1 RES     
   21168 H6        -305.1143  -228.7690   425.6105 H6            1 RES     
   21169 H6        -306.3482  -227.4430   425.5686 H6            1 RES     
   21170 H6        -306.7977  -229.0977   425.0518 H6            1 RES     
   21171 C0        -295.6809  -210.7113   435.4073 C0            1 RES     
   21172 C0        -297.5004  -210.9414   435.1665 C0            1 RES     
   21173 C0        -297.8591  -212.1966   435.6412 C0            1 RES     
   21174 S1        -299.4374  -212.7358   435.2290 S1            1 RES     
   21175 C0        -300.0383  -211.4785   434.3272 C0            1 RES     
   21176 C0        -298.8311  -210.4999   434.3977 C0            1 RES     
   21177 C0        -296.6966  -213.0546   435.8739 C0            1 RES     
   21178 C0        -295.7384  -212.2231   435.0365 C0            1 RES     
   21179 C0        -295.6528  -212.7036   433.7662 C0            1 RES     
   21180 C0        -296.2973  -213.9174   433.5403 C0            1 RES     
   21181 S1        -297.0222  -214.6327   434.9906 S1            1 RES     
   21182 H2        -298.9046  -209.6010   433.7975 H2            1 RES     
   21183 H2        -295.3044  -212.1176   432.9315 H2            1 RES     
   21184 N3        -303.2527  -213.5805   433.2306 N3            1 RES     
   21185 C0        -302.0598  -213.1585   433.6771 C0            1 RES     
   21186 C0        -301.5759  -211.7664   433.6757 C0            1 RES     
   21187 C0        -302.6309  -210.9171   433.0840 C0            1 RES     
   21188 N3        -302.5453  -209.5608   432.9050 N3            1 RES     
   21189 S1        -304.0187  -209.1559   432.2415 S1            1 RES     
   21190 N3        -304.8091  -210.6016   432.1177 N3            1 RES     
   21191 C0        -303.9110  -211.4586   432.6217 C0            1 RES     
   21192 C0        -304.2236  -212.7942   432.6895 C0            1 RES     
   21193 H4        -301.4461  -213.9504   434.0452 H4            1 RES     
   21194 C5        -279.9538  -210.6029   446.7590 C5            1 RES     
   21195 C5        -281.3190  -210.4999   446.0212 C5            1 RES     
   21196 C5        -281.2461  -209.7304   444.6616 C5            1 RES     
   21197 C5        -282.4996  -209.8212   443.6621 C5            1 RES     
   21198 C5        -283.8503  -209.0368   443.9561 C5            1 RES     
   21199 C5        -285.2552  -209.2857   443.0951 C5            1 RES     
   21200 C5        -285.6252  -208.7531   441.5742 C5            1 RES     
   21201 C5        -287.1828  -208.6625   440.7707 C5            1 RES     
   21202 C5        -288.1007  -209.7531   439.8337 C5            1 RES     
   21203 C5        -289.7150  -209.8697   439.0435 C5            1 RES     
   21204 C5        -290.5089  -209.4252   437.5115 C5            1 RES     
   21205 C5        -289.5372  -208.1635   437.1409 C5            1 RES     
   21206 C5        -289.3231  -206.9596   438.1676 C5            1 RES     
   21207 C5        -288.0050  -206.0948   437.9599 C5            1 RES     
   21208 C5        -287.8810  -204.8004   438.8518 C5            1 RES     
   21209 C5        -289.1175  -203.8770   438.7937 C5            1 RES     
   21210 C5        -289.5336  -203.4632   437.3613 C5            1 RES     
   21211 C5        -289.3705  -201.9794   437.0116 C5            1 RES     
   21212 C5        -287.9417  -201.4551   437.1038 C5            1 RES     
   21213 C5        -292.1655  -209.7925   436.5008 C5            1 RES     
   21214 C0        -294.0696  -210.2463   436.4972 C0            1 RES     
   21215 C5        -294.5386  -209.5190   437.7834 C5            1 RES     
   21216 C5        -293.5603  -209.6042   439.0527 C5            1 RES     
   21217 C5        -293.7578  -210.8804   439.8888 C5            1 RES     
   21218 C5        -293.7458  -212.2333   439.1405 C5            1 RES     
   21219 C5        -292.5132  -212.5026   438.2500 C5            1 RES     
   21220 C5        -292.3552  -213.9498   437.8024 C5            1 RES     
   21221 C5        -293.6079  -214.4844   437.1074 C5            1 RES     
   21222 C5        -293.5038  -215.9922   436.9026 C5            1 RES     
   21223 C5        -294.8700  -216.5410   436.5144 C5            1 RES     
   21224 C5        -294.9079  -218.0519   436.4910 C5            1 RES     
   21225 C5        -293.6291  -208.2954   439.9112 C5            1 RES     
   21226 C5        -292.4968  -207.8967   440.9338 C5            1 RES     
   21227 C5        -292.3230  -208.5879   442.3137 C5            1 RES     
   21228 C5        -293.6212  -208.5908   443.1311 C5            1 RES     
   21229 C5        -293.4215  -208.9760   444.6143 C5            1 RES     
   21230 C5        -294.7596  -209.3286   445.3006 C5            1 RES     
   21231 C5        -295.8476  -208.2349   445.2678 C5            1 RES     
   21232 C5        -295.5382  -206.9688   446.0883 C5            1 RES     
   21233 C5        -295.3621  -207.2027   447.6018 C5            1 RES     
   21234 C5        -296.5992  -207.8065   448.2724 C5            1 RES     
   21235 H6        -279.1954  -211.1411   446.1458 H6            1 RES     
   21236 H6        -279.5390  -209.6092   447.0321 H6            1 RES     
   21237 H6        -280.0630  -211.1870   447.7042 H6            1 RES     
   21238 H6        -281.6384  -211.5461   445.8326 H6            1 RES     
   21239 H6        -282.0474  -210.0151   446.7023 H6            1 RES     
   21240 H6        -280.9306  -208.6801   444.8546 H6            1 RES     
   21241 H6        -280.3934  -210.2146   444.1282 H6            1 RES     
   21242 H6        -282.7223  -210.9014   443.5644 H6            1 RES     
   21243 H6        -282.1284  -209.4459   442.6874 H6            1 RES     
   21244 H6        -283.6016  -207.9511   444.0178 H6            1 RES     
   21245 H6        -284.0767  -209.3359   445.0075 H6            1 RES     
   21246 H6        -285.9909  -208.7649   443.7473 H6            1 RES     
   21247 H6        -285.4571  -210.3684   443.1654 H6            1 RES     
   21248 H6        -285.3292  -207.6817   441.7005 H6            1 RES     
   21249 H6        -284.8612  -209.1663   440.8840 H6            1 RES     
   21250 H6        -286.9593  -207.8234   440.0797 H6            1 RES     
   21251 H6        -287.8200  -208.2192   441.5658 H6            1 RES     
   21252 H6        -287.3695  -210.1103   439.0795 H6            1 RES     
   21253 H6        -288.1727  -210.5526   440.5990 H6            1 RES     
   21254 H6        -290.3809  -209.5518   439.8515 H6            1 RES     
   21255 H6        -289.7961  -210.9641   439.0085 H6            1 RES     
   21256 H6        -289.9419  -210.1342   436.8673 H6            1 RES     
   21257 H6        -289.6905  -207.7814   436.1117 H6            1 RES     
   21258 H6        -288.5010  -208.5935   437.1143 H6            1 RES     
   21259 H6        -289.2500  -207.3171   439.2138 H6            1 RES     
   21260 H6        -290.2128  -206.3164   438.0841 H6            1 RES     
   21261 H6        -287.9065  -205.8002   436.9018 H6            1 RES     
   21262 H6        -287.0895  -206.7000   438.1566 H6            1 RES     
   21263 H6        -286.9769  -204.2166   438.5530 H6            1 RES     
   21264 H6        -287.7275  -205.0805   439.9198 H6            1 RES     
   21265 H6        -289.9445  -204.4572   439.2480 H6            1 RES     
   21266 H6        -289.0109  -202.9859   439.4545 H6            1 RES     
   21267 H6        -289.0333  -204.0693   436.5880 H6            1 RES     
   21268 H6        -290.6173  -203.6816   437.2604 H6            1 RES     
   21269 H6        -290.0227  -201.3717   437.6731 H6            1 RES     
   21270 H6        -289.7230  -201.8511   435.9639 H6            1 RES     
   21271 H6        -287.2605  -202.0401   436.4519 H6            1 RES     
   21272 H6        -287.9329  -200.3951   436.7674 H6            1 RES     
   21273 H6        -287.5798  -201.4887   438.1517 H6            1 RES     
   21274 H6        -291.7953  -210.6070   435.8372 H6            1 RES     
   21275 H6        -292.1338  -208.9502   435.7776 H6            1 RES     
   21276 H6        -294.6110  -208.4680   437.4436 H6            1 RES     
   21277 H6        -295.5516  -209.8697   438.0624 H6            1 RES     
   21278 H6        -292.5257  -209.6096   438.7650 H6            1 RES     
   21279 H6        -292.9588  -210.9116   440.6506 H6            1 RES     
   21280 H6        -294.7299  -210.8091   440.4124 H6            1 RES     
   21281 H6        -293.7963  -213.0173   439.9244 H6            1 RES     
   21282 H6        -294.6662  -212.2956   438.5227 H6            1 RES     
   21283 H6        -292.6130  -211.9595   437.3310 H6            1 RES     
   21284 H6        -291.5882  -212.1993   438.7660 H6            1 RES     
   21285 H6        -291.4852  -214.0313   437.1099 H6            1 RES     
   21286 H6        -292.1439  -214.5479   438.7107 H6            1 RES     
   21287 H6        -294.4705  -214.3200   437.7801 H6            1 RES     
   21288 H6        -293.8016  -213.9534   436.1472 H6            1 RES     
   21289 H6        -292.7365  -216.2366   436.1351 H6            1 RES     
   21290 H6        -293.2162  -216.4538   437.8703 H6            1 RES     
   21291 H6        -295.1089  -216.1744   435.5071 H6            1 RES     
   21292 H6        -295.6306  -216.1988   437.2561 H6            1 RES     
   21293 H6        -294.2159  -218.4318   435.7139 H6            1 RES     
   21294 H6        -295.9449  -218.3756   436.2572 H6            1 RES     
   21295 H6        -294.6252  -218.4488   437.4883 H6            1 RES     
   21296 H6        -294.6254  -208.1997   440.3786 H6            1 RES     
   21297 H6        -293.5320  -207.4803   439.1587 H6            1 RES     
   21298 H6        -291.5133  -207.8670   440.4278 H6            1 RES     
   21299 H6        -292.7024  -206.8341   441.1880 H6            1 RES     
   21300 H6        -291.9251  -209.6202   442.2248 H6            1 RES     
   21301 H6        -291.5553  -207.9987   442.8717 H6            1 RES     
   21302 H6        -294.3012  -209.3163   442.6401 H6            1 RES     
   21303 H6        -294.0762  -207.5778   443.1078 H6            1 RES     
   21304 H6        -292.8980  -208.1560   445.1582 H6            1 RES     
   21305 H6        -292.7821  -209.8829   444.6845 H6            1 RES     
   21306 H6        -294.5734  -209.6449   446.3487 H6            1 RES     
   21307 H6        -295.1694  -210.2137   444.7678 H6            1 RES     
   21308 H6        -296.7958  -208.6753   445.6379 H6            1 RES     
   21309 H6        -296.0421  -207.9419   444.2155 H6            1 RES     
   21310 H6        -294.6218  -206.4851   445.6894 H6            1 RES     
   21311 H6        -296.3811  -206.2566   445.9455 H6            1 RES     
   21312 H6        -294.4848  -207.8541   447.7928 H6            1 RES     
   21313 H6        -295.1611  -206.2186   448.0782 H6            1 RES     
   21314 H6        -297.4861  -207.1576   448.1099 H6            1 RES     
   21315 H6        -296.8108  -208.8233   447.8829 H6            1 RES     
   21316 H6        -296.4214  -207.8963   449.3648 H6            1 RES     
   21317 C0        -307.1794  -215.6994   429.5593 C0            1 RES     
   21318 C0        -306.3450  -216.7096   430.8649 C0            1 RES     
   21319 C0        -306.8431  -216.3354   432.1064 C0            1 RES     
   21320 S1        -305.9824  -216.9229   433.4724 S1            1 RES     
   21321 C0        -304.7489  -217.7982   432.7887 C0            1 RES     
   21322 C0        -305.0967  -217.6171   431.2834 C0            1 RES     
   21323 C0        -307.5992  -215.0838   432.0463 C0            1 RES     
   21324 C0        -307.0428  -214.6480   430.7006 C0            1 RES     
   21325 C0        -305.9729  -213.8215   430.8560 C0            1 RES     
   21326 C0        -305.7168  -213.4126   432.1625 C0            1 RES     
   21327 S1        -306.9043  -213.9865   433.3462 S1            1 RES     
   21328 H2        -304.3824  -218.0158   430.5731 H2            1 RES     
   21329 H2        -305.2390  -213.6484   430.0860 H2            1 RES     
   21330 N3        -302.9088  -218.2664   436.3027 N3            1 RES     
   21331 C0        -303.6817  -217.8810   435.2759 C0            1 RES     
   21332 C0        -303.6443  -218.4291   433.9084 C0            1 RES     
   21333 C0        -302.5965  -219.4704   433.8626 C0            1 RES     
   21334 N3        -302.2590  -220.2033   432.7544 N3            1 RES     
   21335 S1        -301.0626  -221.2237   433.3047 S1            1 RES     
   21336 N3        -300.8837  -220.8054   434.8931 N3            1 RES     
   21337 C0        -301.7959  -219.8343   435.0340 C0            1 RES     
   21338 C0        -301.9470  -219.2290   436.2575 C0            1 RES     
   21339 H4        -304.3578  -217.0958   435.5320 H4            1 RES     
   21340 C5        -323.2267  -209.1681   420.8391 C5            1 RES     
   21341 C5        -322.0454  -209.8966   421.5409 C5            1 RES     
   21342 C5        -320.7018  -209.8359   420.7427 C5            1 RES     
   21343 C5        -319.3476  -210.2698   421.4886 C5            1 RES     
   21344 C5        -319.0216  -211.7961   421.7891 C5            1 RES     
   21345 C5        -317.7650  -212.2844   422.7688 C5            1 RES     
   21346 C5        -316.1506  -212.3177   422.4134 C5            1 RES     
   21347 C5        -314.8422  -213.1459   423.2392 C5            1 RES     
   21348 C5        -313.8144  -212.7417   424.5394 C5            1 RES     
   21349 C5        -312.5290  -213.4826   425.5605 C5            1 RES     
   21350 C5        -310.7669  -213.7459   425.5411 C5            1 RES     
   21351 C5        -310.5817  -213.7434   423.9166 C5            1 RES     
   21352 C5        -311.4251  -214.7329   422.9900 C5            1 RES     
   21353 C5        -311.5727  -214.3024   421.4665 C5            1 RES     
   21354 C5        -312.2463  -215.3614   420.5120 C5            1 RES     
   21355 C5        -311.6152  -216.7688   420.5908 C5            1 RES     
   21356 C5        -310.0838  -216.7910   420.3661 C5            1 RES     
   21357 C5        -309.5974  -217.4890   419.0907 C5            1 RES     
   21358 C5        -310.1119  -216.8772   417.7923 C5            1 RES     
   21359 C5        -309.3004  -214.2768   426.7530 C5            1 RES     
   21360 C0        -308.6882  -215.2903   428.3117 C0            1 RES     
   21361 C5        -309.5996  -216.5405   428.2149 C5            1 RES     
   21362 C5        -311.1312  -216.2820   427.8113 C5            1 RES     
   21363 C5        -312.0232  -215.9165   429.0102 C5            1 RES     
   21364 C5        -311.5392  -214.7801   429.9401 C5            1 RES     
   21365 C5        -311.1958  -213.4418   429.2501 C5            1 RES     
   21366 C5        -311.0553  -212.2558   430.1954 C5            1 RES     
   21367 C5        -310.0487  -212.5203   431.3156 C5            1 RES     
   21368 C5        -310.1221  -211.4217   432.3710 C5            1 RES     
   21369 C5        -309.3604  -211.8669   433.6120 C5            1 RES     
   21370 C5        -309.5511  -210.9298   434.7826 C5            1 RES     
   21371 C5        -311.7033  -217.4698   426.9647 C5            1 RES     
   21372 C5        -312.9897  -217.3216   426.0647 C5            1 RES     
   21373 C5        -314.4279  -217.2707   426.6485 C5            1 RES     
   21374 C5        -314.7212  -218.4551   427.5784 C5            1 RES     
   21375 C5        -316.2183  -218.6174   427.9256 C5            1 RES     
   21376 C5        -316.4286  -219.5602   429.1309 C5            1 RES     
   21377 C5        -315.8482  -220.9829   428.9886 C5            1 RES     
   21378 C5        -316.5260  -221.8711   427.9287 C5            1 RES     
   21379 C5        -318.0201  -222.1564   428.1796 C5            1 RES     
   21380 C5        -318.2894  -222.8657   429.5096 C5            1 RES     
   21381 H6        -323.0108  -208.0855   420.6898 H6            1 RES     
   21382 H6        -323.4776  -209.6122   419.8522 H6            1 RES     
   21383 H6        -324.1473  -209.2194   421.4687 H6            1 RES     
   21384 H6        -321.9141  -209.3850   422.5172 H6            1 RES     
   21385 H6        -322.3424  -210.9498   421.7198 H6            1 RES     
   21386 H6        -320.8350  -210.3543   419.7663 H6            1 RES     
   21387 H6        -320.5850  -208.7521   420.5021 H6            1 RES     
   21388 H6        -319.3397  -209.7039   422.4403 H6            1 RES     
   21389 H6        -318.5241  -209.8968   420.8473 H6            1 RES     
   21390 H6        -319.0047  -212.3346   420.8122 H6            1 RES     
   21391 H6        -319.9560  -212.1463   422.2896 H6            1 RES     
   21392 H6        -318.0276  -213.3548   422.9215 H6            1 RES     
   21393 H6        -317.9200  -211.7641   423.7296 H6            1 RES     
   21394 H6        -316.2123  -212.8384   421.4253 H6            1 RES     
   21395 H6        -315.8471  -211.2821   422.1562 H6            1 RES     
   21396 H6        -314.1586  -213.2706   422.3739 H6            1 RES     
   21397 H6        -315.2831  -214.1522   423.4057 H6            1 RES     
   21398 H6        -313.4318  -211.7405   424.2526 H6            1 RES     
   21399 H6        -314.6144  -212.5657   425.2870 H6            1 RES     
   21400 H6        -312.9904  -214.4340   425.8422 H6            1 RES     
   21401 H6        -312.6315  -212.8338   426.4404 H6            1 RES     
   21402 H6        -310.4799  -212.6749   425.6401 H6            1 RES     
   21403 H6        -309.5205  -213.7133   423.5977 H6            1 RES     
   21404 H6        -310.9896  -212.7537   423.5798 H6            1 RES     
   21405 H6        -312.4698  -214.8396   423.3434 H6            1 RES     
   21406 H6        -310.9358  -215.7169   423.0578 H6            1 RES     
   21407 H6        -310.5874  -214.0343   421.0501 H6            1 RES     
   21408 H6        -312.1700  -213.3662   421.3672 H6            1 RES     
   21409 H6        -312.2046  -215.0031   419.4549 H6            1 RES     
   21410 H6        -313.3281  -215.4700   420.7579 H6            1 RES     
   21411 H6        -311.8272  -217.1336   421.6150 H6            1 RES     
   21412 H6        -312.1297  -217.5004   419.9260 H6            1 RES     
   21413 H6        -309.6387  -215.7833   420.4136 H6            1 RES     
   21414 H6        -309.6383  -217.3568   421.2108 H6            1 RES     
   21415 H6        -309.8852  -218.5606   419.1252 H6            1 RES     
   21416 H6        -308.4862  -217.4279   419.0896 H6            1 RES     
   21417 H6        -309.8400  -215.8037   417.7231 H6            1 RES     
   21418 H6        -309.6463  -217.4179   416.9392 H6            1 RES     
   21419 H6        -311.2125  -216.9918   417.7153 H6            1 RES     
   21420 H6        -308.9414  -213.2665   427.0554 H6            1 RES     
   21421 H6        -308.5186  -214.5228   426.0036 H6            1 RES     
   21422 H6        -309.1033  -217.1298   427.4201 H6            1 RES     
   21423 H6        -309.5494  -217.1134   429.1616 H6            1 RES     
   21424 H6        -311.2343  -215.4662   427.1206 H6            1 RES     
   21425 H6        -313.0147  -215.6292   428.6178 H6            1 RES     
   21426 H6        -312.1502  -216.8174   429.6398 H6            1 RES     
   21427 H6        -312.3618  -214.6058   430.6646 H6            1 RES     
   21428 H6        -310.6514  -215.1439   430.4987 H6            1 RES     
   21429 H6        -310.2313  -213.5171   428.7881 H6            1 RES     
   21430 H6        -311.9554  -213.1898   428.4928 H6            1 RES     
   21431 H6        -310.7377  -211.3566   429.6180 H6            1 RES     
   21432 H6        -312.0579  -212.0656   430.6267 H6            1 RES     
   21433 H6        -310.3383  -213.4597   431.8229 H6            1 RES     
   21434 H6        -309.0146  -212.6371   430.9177 H6            1 RES     
   21435 H6        -309.7231  -210.4622   431.9738 H6            1 RES     
   21436 H6        -311.1861  -211.2873   432.6572 H6            1 RES     
   21437 H6        -308.2913  -211.8935   433.3622 H6            1 RES     
   21438 H6        -309.7233  -212.8742   433.9274 H6            1 RES     
   21439 H6        -309.1368  -209.9326   434.5352 H6            1 RES     
   21440 H6        -309.0152  -211.3486   435.6612 H6            1 RES     
   21441 H6        -310.6311  -210.8504   435.0262 H6            1 RES     
   21442 H6        -311.7662  -218.3821   427.5843 H6            1 RES     
   21443 H6        -310.9216  -217.6433   426.1907 H6            1 RES     
   21444 H6        -312.8679  -216.4831   425.3531 H6            1 RES     
   21445 H6        -312.9923  -218.2264   425.4187 H6            1 RES     
   21446 H6        -314.6416  -216.3140   427.1691 H6            1 RES     
   21447 H6        -315.1276  -217.3221   425.7792 H6            1 RES     
   21448 H6        -314.1349  -218.2820   428.5037 H6            1 RES     
   21449 H6        -314.3866  -219.3974   427.0951 H6            1 RES     
   21450 H6        -316.7836  -218.9765   427.0346 H6            1 RES     
   21451 H6        -316.6458  -217.6331   428.2164 H6            1 RES     
   21452 H6        -317.5092  -219.6163   429.3810 H6            1 RES     
   21453 H6        -315.9237  -219.0864   430.0002 H6            1 RES     
   21454 H6        -315.9186  -221.4881   429.9734 H6            1 RES     
   21455 H6        -314.7644  -220.9162   428.7610 H6            1 RES     
   21456 H6        -316.4114  -221.4046   426.9277 H6            1 RES     
   21457 H6        -315.9883  -222.8451   427.9070 H6            1 RES     
   21458 H6        -318.6055  -221.2150   428.1391 H6            1 RES     
   21459 H6        -318.3841  -222.8149   427.3612 H6            1 RES     
   21460 H6        -317.7273  -223.8225   429.5616 H6            1 RES     
   21461 H6        -318.0068  -222.2256   430.3703 H6            1 RES     
   21462 H6        -319.3739  -223.0869   429.5983 H6            1 RES     
   21463 C0        -298.4425  -218.2697   439.9687 C0            1 RES     
   21464 C0        -300.0946  -217.5384   440.3649 C0            1 RES     
   21465 C0        -301.0072  -218.5692   440.5497 C0            1 RES     
   21466 S1        -302.6613  -218.1092   440.6150 S1            1 RES     
   21467 C0        -302.5997  -216.4630   440.4107 C0            1 RES     
   21468 C0        -301.0601  -216.2649   440.3105 C0            1 RES     
   21469 C0        -300.4960  -219.8547   440.0725 C0            1 RES     
   21470 C0        -299.3869  -219.2577   439.2216 C0            1 RES     
   21471 C0        -299.7870  -219.1054   437.9298 C0            1 RES     
   21472 C0        -301.0225  -219.6663   437.6154 C0            1 RES     
   21473 S1        -301.7784  -220.5482   438.9538 S1            1 RES     
   21474 H2        -300.7181  -215.2651   440.0714 H2            1 RES     
   21475 H2        -299.3115  -218.4316   437.2360 H2            1 RES     
   21476 N3        -306.5660  -216.1942   440.0237 N3            1 RES     
   21477 C0        -305.2862  -216.5906   440.0976 C0            1 RES     
   21478 C0        -304.1196  -215.7188   440.3233 C0            1 RES     
   21479 C0        -304.6054  -214.3280   440.4418 C0            1 RES     
   21480 N3        -303.8124  -213.2292   440.6485 N3            1 RES     
   21481 S1        -304.8978  -211.9680   440.7292 S1            1 RES     
   21482 N3        -306.3645  -212.6906   440.4912 N3            1 RES     
   21483 C0        -306.0252  -213.9792   440.3515 C0            1 RES     
   21484 C0        -307.0099  -214.9122   440.1371 C0            1 RES     
   21485 H4        -305.1649  -217.6425   439.9627 H4            1 RES     
   21486 C5        -283.7171  -230.1765   444.1648 C5            1 RES     
   21487 C5        -284.8934  -229.1654   444.0516 C5            1 RES     
   21488 C5        -284.6254  -227.9936   443.0511 C5            1 RES     
   21489 C5        -285.8597  -227.0665   442.6091 C5            1 RES     
   21490 C5        -286.4810  -225.9892   443.5990 C5            1 RES     
   21491 C5        -287.9044  -225.1800   443.2892 C5            1 RES     
   21492 C5        -288.1552  -223.9256   442.2417 C5            1 RES     
   21493 C5        -289.5061  -222.8099   442.1385 C5            1 RES     
   21494 C5        -291.0105  -222.8381   441.3349 C5            1 RES     
   21495 C5        -292.5203  -221.8648   441.2038 C5            1 RES     
   21496 C5        -293.1680  -220.4869   440.2783 C5            1 RES     
   21497 C5        -291.7345  -219.7679   439.9595 C5            1 RES     
   21498 C5        -290.7277  -219.3806   441.1366 C5            1 RES     
   21499 C5        -289.2051  -219.1964   440.7167 C5            1 RES     
   21500 C5        -288.2434  -218.6388   441.8349 C5            1 RES     
   21501 C5        -288.7507  -217.3471   442.5127 C5            1 RES     
   21502 C5        -289.0909  -216.2042   441.5257 C5            1 RES     
   21503 C5        -288.1913  -214.9645   441.5904 C5            1 RES     
   21504 C5        -286.7190  -215.2279   441.2943 C5            1 RES     
   21505 C5        -294.8867  -219.5922   439.8954 C5            1 RES     
   21506 C0        -296.6939  -219.1033   440.4668 C0            1 RES     
   21507 C5        -296.4675  -218.9010   441.9870 C5            1 RES     
   21508 C5        -295.5122  -219.9637   442.7175 C5            1 RES     
   21509 C5        -296.2468  -221.2426   443.1548 C5            1 RES     
   21510 C5        -297.1070  -221.9697   442.0956 C5            1 RES     
   21511 C5        -296.3923  -222.3282   440.7744 C5            1 RES     
   21512 C5        -297.1372  -223.3270   439.8984 C5            1 RES     
   21513 C5        -298.5681  -222.8814   439.5948 C5            1 RES     
   21514 C5        -299.3517  -224.0115   438.9351 C5            1 RES     
   21515 C5        -300.8340  -223.6633   438.9400 C5            1 RES     
   21516 C5        -301.7062  -224.8137   438.4921 C5            1 RES     
   21517 C5        -294.7053  -219.2948   443.8820 C5            1 RES     
   21518 C5        -293.3955  -219.9387   444.4793 C5            1 RES     
   21519 C5        -293.4154  -221.1673   445.4290 C5            1 RES     
   21520 C5        -294.3462  -220.9596   446.6306 C5            1 RES     
   21521 C5        -294.1587  -222.0073   447.7511 C5            1 RES     
   21522 C5        -295.3370  -221.9961   448.7498 C5            1 RES     
   21523 C5        -295.6246  -220.6485   449.4444 C5            1 RES     
   21524 C5        -294.5385  -220.1632   450.4225 C5            1 RES     
   21525 C5        -294.2816  -221.0959   451.6227 C5            1 RES     
   21526 C5        -295.5191  -221.3182   452.4967 C5            1 RES     
   21527 H6        -283.4943  -230.6583   443.1854 H6            1 RES     
   21528 H6        -282.7838  -229.7066   444.5418 H6            1 RES     
   21529 H6        -283.9785  -231.0036   444.8677 H6            1 RES     
   21530 H6        -285.7644  -229.7558   443.6983 H6            1 RES     
   21531 H6        -285.1103  -228.7685   445.0639 H6            1 RES     
   21532 H6        -283.7546  -227.4001   443.4109 H6            1 RES     
   21533 H6        -284.2829  -228.5104   442.1229 H6            1 RES     
   21534 H6        -286.6560  -227.7666   442.2901 H6            1 RES     
   21535 H6        -285.5049  -226.5047   441.7219 H6            1 RES     
   21536 H6        -285.6661  -225.2804   443.8782 H6            1 RES     
   21537 H6        -286.6630  -226.5897   444.5223 H6            1 RES     
   21538 H6        -288.1120  -224.7391   444.2893 H6            1 RES     
   21539 H6        -288.6581  -225.9660   443.1098 H6            1 RES     
   21540 H6        -287.2994  -223.2775   442.5561 H6            1 RES     
   21541 H6        -287.8711  -224.2783   441.2290 H6            1 RES     
   21542 H6        -288.9692  -221.9476   441.6916 H6            1 RES     
   21543 H6        -289.6533  -222.5365   443.2054 H6            1 RES     
   21544 H6        -290.7323  -223.1042   440.2943 H6            1 RES     
   21545 H6        -291.3897  -223.7695   441.8025 H6            1 RES     
   21546 H6        -292.7584  -221.6821   442.2562 H6            1 RES     
   21547 H6        -293.1988  -222.6664   440.8834 H6            1 RES     
   21548 H6        -293.2013  -221.0035   439.2929 H6            1 RES     
   21549 H6        -291.8129  -218.9450   439.2210 H6            1 RES     
   21550 H6        -291.1308  -220.5489   439.4256 H6            1 RES     
   21551 H6        -290.6984  -220.1564   441.9270 H6            1 RES     
   21552 H6        -291.1112  -218.4492   441.5813 H6            1 RES     
   21553 H6        -289.1310  -218.5400   439.8337 H6            1 RES     
   21554 H6        -288.7613  -220.1598   440.3733 H6            1 RES     
   21555 H6        -287.2292  -218.4502   441.4064 H6            1 RES     
   21556 H6        -288.1020  -219.3995   442.6373 H6            1 RES     
   21557 H6        -289.6748  -217.6360   443.0506 H6            1 RES     
   21558 H6        -288.0637  -216.9935   443.3158 H6            1 RES     
   21559 H6        -289.1423  -216.5539   440.4813 H6            1 RES     
   21560 H6        -290.1132  -215.8510   441.7754 H6            1 RES     
   21561 H6        -288.2810  -214.4968   442.5932 H6            1 RES     
   21562 H6        -288.5761  -214.2432   440.8354 H6            1 RES     
   21563 H6        -286.5914  -215.6949   440.2959 H6            1 RES     
   21564 H6        -286.1782  -214.2562   441.3043 H6            1 RES     
   21565 H6        -286.2739  -215.8797   442.0736 H6            1 RES     
   21566 H6        -295.1423  -220.0956   438.9351 H6            1 RES     
   21567 H6        -294.5099  -218.6284   439.4924 H6            1 RES     
   21568 H6        -295.9986  -217.8989   442.0215 H6            1 RES     
   21569 H6        -297.4445  -218.8510   442.5065 H6            1 RES     
   21570 H6        -294.7164  -220.2970   442.0781 H6            1 RES     
   21571 H6        -295.4894  -221.9584   443.5204 H6            1 RES     
   21572 H6        -296.9173  -220.9905   443.9981 H6            1 RES     
   21573 H6        -297.4570  -222.9069   442.5762 H6            1 RES     
   21574 H6        -297.9923  -221.3372   441.8747 H6            1 RES     
   21575 H6        -296.3201  -221.4524   440.1602 H6            1 RES     
   21576 H6        -295.3860  -222.7297   440.9743 H6            1 RES     
   21577 H6        -296.5829  -223.4669   438.9412 H6            1 RES     
   21578 H6        -297.1505  -224.2901   440.4456 H6            1 RES     
   21579 H6        -299.0737  -222.6713   440.5561 H6            1 RES     
   21580 H6        -298.5860  -221.9553   438.9757 H6            1 RES     
   21581 H6        -298.9836  -224.1997   437.9023 H6            1 RES     
   21582 H6        -299.2175  -224.9284   439.5463 H6            1 RES     
   21583 H6        -300.9874  -222.8244   438.2480 H6            1 RES     
   21584 H6        -301.1466  -223.3904   439.9762 H6            1 RES     
   21585 H6        -301.4762  -225.0700   437.4391 H6            1 RES     
   21586 H6        -302.7700  -224.5041   438.5765 H6            1 RES     
   21587 H6        -301.5353  -225.6911   439.1501 H6            1 RES     
   21588 H6        -295.3910  -218.9880   444.6919 H6            1 RES     
   21589 H6        -294.2949  -218.3679   443.4209 H6            1 RES     
   21590 H6        -292.6569  -220.1250   443.6768 H6            1 RES     
   21591 H6        -292.9337  -219.1327   445.0901 H6            1 RES     
   21592 H6        -293.6768  -222.1082   444.9012 H6            1 RES     
   21593 H6        -292.3723  -221.2953   445.8078 H6            1 RES     
   21594 H6        -295.3825  -221.0064   446.2384 H6            1 RES     
   21595 H6        -294.1600  -219.9588   447.0749 H6            1 RES     
   21596 H6        -293.1894  -221.8411   448.2756 H6            1 RES     
   21597 H6        -294.1280  -223.0276   447.3105 H6            1 RES     
   21598 H6        -295.1921  -222.7907   449.5119 H6            1 RES     
   21599 H6        -296.2477  -222.2681   448.1739 H6            1 RES     
   21600 H6        -296.5838  -220.7375   449.9941 H6            1 RES     
   21601 H6        -295.7898  -219.8666   448.6749 H6            1 RES     
   21602 H6        -293.5860  -220.0136   449.8721 H6            1 RES     
   21603 H6        -294.8551  -219.1724   450.8178 H6            1 RES     
   21604 H6        -293.8956  -222.0760   451.2750 H6            1 RES     
   21605 H6        -293.4956  -220.6295   452.2555 H6            1 RES     
   21606 H6        -295.9099  -220.3485   452.8724 H6            1 RES     
   21607 H6        -296.3180  -221.8441   451.9349 H6            1 RES     
   21608 H6        -295.2486  -221.9522   453.3672 H6            1 RES     
   21609 C0        -311.5363  -214.4796   437.6272 C0            1 RES     
   21610 C0        -311.2054  -216.2158   438.1728 C0            1 RES     
   21611 C0        -311.2057  -216.2559   439.5613 C0            1 RES     
   21612 S1        -310.6093  -217.7010   440.2739 S1            1 RES     
   21613 C0        -310.1967  -218.6242   438.9576 C0            1 RES     
   21614 C0        -310.6218  -217.6603   437.8130 C0            1 RES     
   21615 C0        -311.1391  -214.9199   440.1548 C0            1 RES     
   21616 C0        -310.6590  -214.2278   438.8895 C0            1 RES     
   21617 C0        -309.3021  -214.1252   438.8706 C0            1 RES     
   21618 C0        -308.6568  -214.5004   440.0465 C0            1 RES     
   21619 S1        -309.7548  -214.9492   441.3630 S1            1 RES     
   21620 H2        -310.3733  -217.9708   436.8053 H2            1 RES     
   21621 H2        -308.7302  -213.9722   437.9701 H2            1 RES     
   21622 N3        -308.3898  -221.3636   441.2345 N3            1 RES     
   21623 C0        -308.9721  -220.2654   440.7291 C0            1 RES     
   21624 C0        -309.4647  -220.1013   439.3499 C0            1 RES     
   21625 C0        -309.1935  -221.3553   438.6162 C0            1 RES     
   21626 N3        -309.5018  -221.5830   437.3001 N3            1 RES     
   21627 S1        -309.0020  -223.1512   437.0427 S1            1 RES     
   21628 N3        -308.3692  -223.6102   438.4983 N3            1 RES     
   21629 C0        -308.5534  -222.5131   439.2450 C0            1 RES     
   21630 C0        -308.1451  -222.5184   440.5562 C0            1 RES     
   21631 H4        -309.0479  -219.4687   441.4353 H4            1 RES     
   21632 C5        -322.4208  -198.4263   437.8091 C5            1 RES     
   21633 C5        -321.7472  -199.8277   437.7761 C5            1 RES     
   21634 C5        -320.7442  -200.0190   436.5915 C5            1 RES     
   21635 C5        -319.7592  -201.2868   436.6192 C5            1 RES     
   21636 C5        -320.2907  -202.7539   436.3170 C5            1 RES     
   21637 C5        -319.3780  -204.1248   436.5711 C5            1 RES     
   21638 C5        -318.1349  -204.7058   435.6487 C5            1 RES     
   21639 C5        -317.3929  -206.2963   435.6487 C5            1 RES     
   21640 C5        -316.1209  -207.0130   436.5310 C5            1 RES     
   21641 C5        -315.3180  -208.6120   436.7372 C5            1 RES     
   21642 C5        -314.0279  -209.5868   435.9888 C5            1 RES     
   21643 C5        -314.1358  -208.9446   434.4890 C5            1 RES     
   21644 C5        -315.5217  -208.9315   433.6965 C5            1 RES     
   21645 C5        -315.6479  -207.8536   432.5343 C5            1 RES     
   21646 C5        -316.9381  -207.9573   431.6339 C5            1 RES     
   21647 C5        -317.1902  -209.3679   431.0578 C5            1 RES     
   21648 C5        -315.9878  -209.9616   430.2846 C5            1 RES     
   21649 C5        -316.1819  -210.1536   428.7760 C5            1 RES     
   21650 C5        -316.4713  -208.8725   428.0014 C5            1 RES     
   21651 C5        -312.9301  -211.1869   436.3572 C5            1 RES     
   21652 C0        -312.7419  -212.9399   437.2075 C0            1 RES     
   21653 C5        -314.1948  -213.4687   437.0953 C5            1 RES     
   21654 C5        -315.3671  -212.4115   437.3839 C5            1 RES     
   21655 C5        -315.7008  -212.2655   438.8786 C5            1 RES     
   21656 C5        -314.5264  -212.0069   439.8504 C5            1 RES     
   21657 C5        -313.6149  -210.8088   439.5058 C5            1 RES     
   21658 C5        -312.6911  -210.3667   440.6332 C5            1 RES     
   21659 C5        -311.8359  -211.5153   441.1694 C5            1 RES     
   21660 C5        -311.1176  -211.0958   442.4478 C5            1 RES     
   21661 C5        -310.5433  -212.3308   443.1286 C5            1 RES     
   21662 C5        -309.9919  -212.0364   444.5049 C5            1 RES     
   21663 C5        -316.6285  -212.7082   436.5032 C5            1 RES     
   21664 C5        -317.7413  -211.6245   436.2309 C5            1 RES     
   21665 C5        -318.7941  -211.2092   437.2944 C5            1 RES     
   21666 C5        -319.5410  -212.4160   437.8769 C5            1 RES     
   21667 C5        -320.7981  -212.0356   438.6913 C5            1 RES     
   21668 C5        -321.2991  -213.2132   439.5563 C5            1 RES     
   21669 C5        -321.6364  -214.5151   438.7997 C5            1 RES     
   21670 C5        -322.8524  -214.4369   437.8578 C5            1 RES     
   21671 C5        -324.1905  -214.1108   438.5503 C5            1 RES     
   21672 C5        -324.5904  -215.1358   439.6153 C5            1 RES     
   21673 H6        -321.6684  -197.6115   437.9137 H6            1 RES     
   21674 H6        -323.0301  -198.2230   436.9028 H6            1 RES     
   21675 H6        -323.1001  -198.3394   438.6909 H6            1 RES     
   21676 H6        -321.1999  -199.9208   438.7373 H6            1 RES     
   21677 H6        -322.5449  -200.5968   437.7364 H6            1 RES     
   21678 H6        -321.2970  -199.9303   435.6289 H6            1 RES     
   21679 H6        -320.0867  -199.1190   436.6526 H6            1 RES     
   21680 H6        -319.2864  -201.2722   437.6204 H6            1 RES     
   21681 H6        -318.9827  -201.0748   435.8571 H6            1 RES     
   21682 H6        -320.7320  -202.7469   435.2925 H6            1 RES     
   21683 H6        -321.1677  -202.8366   437.0028 H6            1 RES     
   21684 H6        -320.1612  -204.9109   436.4905 H6            1 RES     
   21685 H6        -319.0621  -204.0779   437.6275 H6            1 RES     
   21686 H6        -318.6323  -204.6452   434.6486 H6            1 RES     
   21687 H6        -317.3542  -203.9185   435.6119 H6            1 RES     
   21688 H6        -317.0425  -206.3107   434.5958 H6            1 RES     
   21689 H6        -318.2841  -206.9597   435.6651 H6            1 RES     
   21690 H6        -315.2995  -206.2743   436.4287 H6            1 RES     
   21691 H6        -316.5568  -206.8548   437.5384 H6            1 RES     
   21692 H6        -316.1770  -209.2749   436.8788 H6            1 RES     
   21693 H6        -314.9010  -208.4522   437.7402 H6            1 RES     
   21694 H6        -313.1840  -208.9229   436.2824 H6            1 RES     
   21695 H6        -313.3035  -209.2481   433.8227 H6            1 RES     
   21696 H6        -313.9744  -207.8434   434.6328 H6            1 RES     
   21697 H6        -316.3774  -208.7103   434.3647 H6            1 RES     
   21698 H6        -315.6566  -209.9446   433.2870 H6            1 RES     
   21699 H6        -314.7614  -207.8948   431.8798 H6            1 RES     
   21700 H6        -315.6328  -206.8160   432.9422 H6            1 RES     
   21701 H6        -316.8750  -207.2266   430.7915 H6            1 RES     
   21702 H6        -317.8425  -207.6734   432.2205 H6            1 RES     
   21703 H6        -317.4013  -210.0137   431.9325 H6            1 RES     
   21704 H6        -318.1226  -209.4154   430.4491 H6            1 RES     
   21705 H6        -315.0581  -209.3940   430.4555 H6            1 RES     
   21706 H6        -315.8021  -210.9748   430.6983 H6            1 RES     
   21707 H6        -317.0054  -210.8770   428.6002 H6            1 RES     
   21708 H6        -315.2408  -210.5963   428.3803 H6            1 RES     
   21709 H6        -315.6653  -208.1252   428.1531 H6            1 RES     
   21710 H6        -316.5275  -209.1204   426.9187 H6            1 RES     
   21711 H6        -317.4460  -208.4415   428.3088 H6            1 RES     
   21712 H6        -312.0284  -210.6924   436.7855 H6            1 RES     
   21713 H6        -312.5481  -211.3908   435.3345 H6            1 RES     
   21714 H6        -314.2435  -213.7939   436.0384 H6            1 RES     
   21715 H6        -314.3195  -214.3581   437.7437 H6            1 RES     
   21716 H6        -315.1099  -211.4232   437.0518 H6            1 RES     
   21717 H6        -316.4142  -211.4293   438.9849 H6            1 RES     
   21718 H6        -316.2029  -213.1914   439.2174 H6            1 RES     
   21719 H6        -314.9855  -211.8297   440.8452 H6            1 RES     
   21720 H6        -313.9134  -212.9308   439.9067 H6            1 RES     
   21721 H6        -312.9429  -211.0882   438.7184 H6            1 RES     
   21722 H6        -314.2170  -209.9404   439.1941 H6            1 RES     
   21723 H6        -312.0259  -209.5495   440.2691 H6            1 RES     
   21724 H6        -313.3353  -209.9674   441.4412 H6            1 RES     
   21725 H6        -312.5118  -212.3451   441.4495 H6            1 RES     
   21726 H6        -311.1199  -211.8863   440.4006 H6            1 RES     
   21727 H6        -310.3237  -210.3476   442.2299 H6            1 RES     
   21728 H6        -311.8663  -210.6482   443.1344 H6            1 RES     
   21729 H6        -309.7249  -212.7126   442.5037 H6            1 RES     
   21730 H6        -311.3475  -213.0957   443.2471 H6            1 RES     
   21731 H6        -309.1405  -211.3323   444.4244 H6            1 RES     
   21732 H6        -309.6455  -212.9900   444.9579 H6            1 RES     
   21733 H6        -310.7909  -211.6058   445.1439 H6            1 RES     
   21734 H6        -317.0862  -213.6669   436.8061 H6            1 RES     
   21735 H6        -316.2104  -212.8447   435.4801 H6            1 RES     
   21736 H6        -317.2912  -210.7086   435.8036 H6            1 RES     
   21737 H6        -318.3486  -212.0414   435.3982 H6            1 RES     
   21738 H6        -318.3549  -210.6005   438.1121 H6            1 RES     
   21739 H6        -319.5334  -210.5538   436.7731 H6            1 RES     
   21740 H6        -318.8178  -212.9513   438.5252 H6            1 RES     
   21741 H6        -319.8676  -213.0834   437.0513 H6            1 RES     
   21742 H6        -321.6017  -211.6698   438.0112 H6            1 RES     
   21743 H6        -320.5549  -211.2089   439.3940 H6            1 RES     
   21744 H6        -322.1726  -212.8908   440.1615 H6            1 RES     
   21745 H6        -320.4847  -213.4533   440.2733 H6            1 RES     
   21746 H6        -321.8161  -215.3154   439.5461 H6            1 RES     
   21747 H6        -320.7509  -214.8406   438.2161 H6            1 RES     
   21748 H6        -322.6607  -213.6791   437.0693 H6            1 RES     
   21749 H6        -322.9565  -215.4238   437.3543 H6            1 RES     
   21750 H6        -324.1534  -213.1006   439.0071 H6            1 RES     
   21751 H6        -324.9840  -214.0996   437.7718 H6            1 RES     
   21752 H6        -324.6532  -216.1529   439.1728 H6            1 RES     
   21753 H6        -323.8667  -215.1443   440.4559 H6            1 RES     
   21754 H6        -325.5845  -214.8686   440.0315 H6            1 RES     
   21755 C0        -304.1559  -224.9680   442.8059 C0            1 RES     
   21756 C0        -305.0364  -223.8445   443.9823 C0            1 RES     
   21757 C0        -306.3235  -224.3270   444.1829 C0            1 RES     
   21758 S1        -307.4089  -223.2669   444.9891 S1            1 RES     
   21759 C0        -306.4790  -221.9204   445.2671 C0            1 RES     
   21760 C0        -305.1278  -222.4014   444.6649 C0            1 RES     
   21761 C0        -306.6951  -225.3425   443.1969 C0            1 RES     
   21762 C0        -305.5948  -224.9889   442.2095 C0            1 RES     
   21763 C0        -306.0443  -224.1194   441.2641 C0            1 RES     
   21764 C0        -307.4146  -223.8711   441.2819 C0            1 RES     
   21765 S1        -308.3062  -224.8194   442.4845 S1            1 RES     
   21766 H2        -304.3326  -221.6670   444.6194 H2            1 RES     
   21767 H2        -305.3937  -223.4959   440.6729 H2            1 RES     
   21768 N3        -309.6314  -219.7871   446.4774 N3            1 RES     
   21769 C0        -308.7940  -220.6942   445.9515 C0            1 RES     
   21770 C0        -307.3218  -220.6302   445.9720 C0            1 RES     
   21771 C0        -306.9286  -219.3844   446.6631 C0            1 RES     
   21772 N3        -305.6388  -218.9702   446.8718 N3            1 RES     
   21773 S1        -305.8132  -217.5437   447.7145 S1            1 RES     
   21774 N3        -307.4498  -217.3534   447.8383 N3            1 RES     
   21775 C0        -307.9093  -218.4453   447.2126 C0            1 RES     
   21776 C0        -309.2651  -218.6423   447.1168 C0            1 RES     
   21777 H4        -309.2996  -221.5075   445.4803 H4            1 RES     
   21778 C5        -298.0562  -242.6162   437.5571 C5            1 RES     
   21779 C5        -298.4746  -241.2584   438.1895 C5            1 RES     
   21780 C5        -297.7666  -240.0188   437.5506 C5            1 RES     
   21781 C5        -298.3318  -238.5547   437.8903 C5            1 RES     
   21782 C5        -298.0833  -237.8807   439.3082 C5            1 RES     
   21783 C5        -298.8470  -236.4837   439.8001 C5            1 RES     
   21784 C5        -298.5246  -234.9297   439.3366 C5            1 RES     
   21785 C5        -299.0260  -233.4177   440.0733 C5            1 RES     
   21786 C5        -300.3992  -232.4180   439.9154 C5            1 RES     
   21787 C5        -301.1138  -230.9344   440.6450 C5            1 RES     
   21788 C5        -301.0274  -229.1631   440.4724 C5            1 RES     
   21789 C5        -299.5092  -229.0943   439.8691 C5            1 RES     
   21790 C5        -298.2835  -229.7601   440.6458 C5            1 RES     
   21791 C5        -297.0053  -230.1025   439.7642 C5            1 RES     
   21792 C5        -295.7313  -230.5897   440.5555 C5            1 RES     
   21793 C5        -295.3210  -229.6602   441.7186 C5            1 RES     
   21794 C5        -295.1237  -228.1805   441.3090 C5            1 RES     
   21795 C5        -293.6914  -227.6403   441.3942 C5            1 RES     
   21796 C5        -292.6824  -228.3643   440.5095 C5            1 RES     
   21797 C5        -301.9966  -227.5366   441.0346 C5            1 RES     
   21798 C0        -303.1100  -226.6113   442.3520 C0            1 RES     
   21799 C5        -302.5692  -227.2293   443.6668 C5            1 RES     
   21800 C5        -302.2609  -228.8041   443.6455 C5            1 RES     
   21801 C5        -303.4996  -229.6708   443.9300 C5            1 RES     
   21802 C5        -304.7750  -229.3868   443.1035 C5            1 RES     
   21803 C5        -304.6019  -229.3946   441.5689 C5            1 RES     
   21804 C5        -305.9044  -229.4547   440.7817 C5            1 RES     
   21805 C5        -306.8747  -228.3406   441.1756 C5            1 RES     
   21806 C5        -308.2469  -228.5820   440.5551 C5            1 RES     
   21807 C5        -309.2638  -227.6582   441.2116 C5            1 RES     
   21808 C5        -310.6856  -227.9704   440.8045 C5            1 RES     
   21809 C5        -301.0443  -229.1568   444.5676 C5            1 RES     
   21810 C5        -300.2357  -230.5026   444.4195 C5            1 RES     
   21811 C5        -300.7807  -231.8734   444.9049 C5            1 RES     
   21812 C5        -301.2330  -231.8345   446.3702 C5            1 RES     
   21813 C5        -301.4809  -233.2318   446.9820 C5            1 RES     
   21814 C5        -302.2769  -233.1466   448.3030 C5            1 RES     
   21815 C5        -301.6535  -232.2781   449.4158 C5            1 RES     
   21816 C5        -300.3405  -232.8142   450.0163 C5            1 RES     
   21817 C5        -300.4553  -234.1880   450.7061 C5            1 RES     
   21818 C5        -301.4490  -234.2032   451.8710 C5            1 RES     
   21819 H6        -298.2984  -242.6549   436.4704 H6            1 RES     
   21820 H6        -296.9731  -242.8298   437.6801 H6            1 RES     
   21821 H6        -298.6154  -243.4578   438.0320 H6            1 RES     
   21822 H6        -299.5699  -241.1768   438.0291 H6            1 RES     
   21823 H6        -298.2694  -241.3032   439.2783 H6            1 RES     
   21824 H6        -296.6688  -240.1008   437.7177 H6            1 RES     
   21825 H6        -297.9223  -240.1603   436.4544 H6            1 RES     
   21826 H6        -299.4214  -238.6068   437.7003 H6            1 RES     
   21827 H6        -297.8729  -237.8792   437.1408 H6            1 RES     
   21828 H6        -296.9801  -237.8122   439.4588 H6            1 RES     
   21829 H6        -298.4168  -238.6786   440.0141 H6            1 RES     
   21830 H6        -298.6118  -236.4929   440.8875 H6            1 RES     
   21831 H6        -299.9270  -236.6836   439.6923 H6            1 RES     
   21832 H6        -297.4159  -234.9423   439.4853 H6            1 RES     
   21833 H6        -298.6504  -234.8800   438.2355 H6            1 RES     
   21834 H6        -298.1812  -232.7841   439.7320 H6            1 RES     
   21835 H6        -298.8236  -233.6137   441.1481 H6            1 RES     
   21836 H6        -300.4863  -232.2858   438.8173 H6            1 RES     
   21837 H6        -301.1502  -233.1843   440.1963 H6            1 RES     
   21838 H6        -301.0382  -231.1546   441.7142 H6            1 RES     
   21839 H6        -302.1636  -231.1171   440.3803 H6            1 RES     
   21840 H6        -301.4990  -229.1131   439.4653 H6            1 RES     
   21841 H6        -299.2357  -228.0900   439.4878 H6            1 RES     
   21842 H6        -299.5348  -229.7322   438.9463 H6            1 RES     
   21843 H6        -298.5629  -230.7291   441.1049 H6            1 RES     
   21844 H6        -298.0092  -229.0626   441.4523 H6            1 RES     
   21845 H6        -296.7225  -229.2311   439.1502 H6            1 RES     
   21846 H6        -297.2319  -230.8967   439.0152 H6            1 RES     
   21847 H6        -294.8673  -230.7002   439.8563 H6            1 RES     
   21848 H6        -295.9088  -231.6016   440.9879 H6            1 RES     
   21849 H6        -296.1497  -229.7162   442.4514 H6            1 RES     
   21850 H6        -294.4352  -230.0449   442.2746 H6            1 RES     
   21851 H6        -295.5270  -227.9661   440.3054 H6            1 RES     
   21852 H6        -295.7228  -227.5647   442.0119 H6            1 RES     
   21853 H6        -293.3446  -227.6820   442.4480 H6            1 RES     
   21854 H6        -293.7269  -226.5727   441.0824 H6            1 RES     
   21855 H6        -292.9972  -228.3409   439.4458 H6            1 RES     
   21856 H6        -291.7005  -227.8503   440.6014 H6            1 RES     
   21857 H6        -292.5552  -229.4152   440.8407 H6            1 RES     
   21858 H6        -302.6384  -227.3892   440.1361 H6            1 RES     
   21859 H6        -301.2193  -226.7727   440.8210 H6            1 RES     
   21860 H6        -301.6253  -226.6708   443.8159 H6            1 RES     
   21861 H6        -303.2561  -226.9897   444.5022 H6            1 RES     
   21862 H6        -301.8981  -229.1312   442.6891 H6            1 RES     
   21863 H6        -303.2191  -230.7257   443.7618 H6            1 RES     
   21864 H6        -303.7722  -229.5530   444.9958 H6            1 RES     
   21865 H6        -305.5033  -230.1762   443.3832 H6            1 RES     
   21866 H6        -305.1829  -228.4047   443.4224 H6            1 RES     
   21867 H6        -304.1560  -228.4710   441.2567 H6            1 RES     
   21868 H6        -303.9705  -230.2409   441.2541 H6            1 RES     
   21869 H6        -305.6828  -229.3832   439.6914 H6            1 RES     
   21870 H6        -306.3613  -230.4427   440.9875 H6            1 RES     
   21871 H6        -307.0170  -228.3808   442.2720 H6            1 RES     
   21872 H6        -306.4753  -227.3357   440.9073 H6            1 RES     
   21873 H6        -308.2162  -228.4323   439.4532 H6            1 RES     
   21874 H6        -308.5475  -229.6275   440.7760 H6            1 RES     
   21875 H6        -309.0351  -226.6291   440.9038 H6            1 RES     
   21876 H6        -309.2016  -227.7679   442.3206 H6            1 RES     
   21877 H6        -310.8087  -227.8038   439.7163 H6            1 RES     
   21878 H6        -311.3693  -227.2968   441.3644 H6            1 RES     
   21879 H6        -310.9269  -229.0222   441.0647 H6            1 RES     
   21880 H6        -301.3044  -228.9748   445.6256 H6            1 RES     
   21881 H6        -300.2693  -228.4108   444.2796 H6            1 RES     
   21882 H6        -299.8644  -230.6173   443.3835 H6            1 RES     
   21883 H6        -299.3138  -230.3499   445.0218 H6            1 RES     
   21884 H6        -301.6003  -232.2566   444.2619 H6            1 RES     
   21885 H6        -299.9389  -232.6022   444.8140 H6            1 RES     
   21886 H6        -302.1682  -231.2390   446.3957 H6            1 RES     
   21887 H6        -300.4550  -231.3342   446.9851 H6            1 RES     
   21888 H6        -300.5130  -233.7635   447.1329 H6            1 RES     
   21889 H6        -302.0921  -233.8448   446.2842 H6            1 RES     
   21890 H6        -302.4768  -234.1686   448.6888 H6            1 RES     
   21891 H6        -303.2638  -232.7004   448.0542 H6            1 RES     
   21892 H6        -302.3980  -232.1681   450.2304 H6            1 RES     
   21893 H6        -301.4784  -231.2537   449.0273 H6            1 RES     
   21894 H6        -299.5679  -232.8736   449.2211 H6            1 RES     
   21895 H6        -299.9865  -232.0778   450.7717 H6            1 RES     
   21896 H6        -300.7389  -234.9678   449.9700 H6            1 RES     
   21897 H6        -299.4532  -234.4529   451.1082 H6            1 RES     
   21898 H6        -301.1703  -233.4418   452.6306 H6            1 RES     
   21899 H6        -302.4831  -234.0105   451.5189 H6            1 RES     
   21900 H6        -301.4398  -235.2036   452.3525 H6            1 RES     
   21901 C0        -313.1247  -215.1906   446.7120 C0            1 RES     
   21902 C0        -313.7293  -216.9323   446.5627 C0            1 RES     
   21903 C0        -313.5291  -217.5805   447.7748 C0            1 RES     
   21904 S1        -313.7287  -219.2869   447.7592 S1            1 RES     
   21905 C0        -314.1145  -219.6036   446.1761 C0            1 RES     
   21906 C0        -314.1110  -218.1559   445.6068 C0            1 RES     
   21907 C0        -312.6390  -216.8325   448.6635 C0            1 RES     
   21908 C0        -312.0662  -215.9428   447.5722 C0            1 RES     
   21909 C0        -310.9042  -216.4537   447.0817 C0            1 RES     
   21910 C0        -310.3965  -217.5538   447.7688 C0            1 RES     
   21911 S1        -311.3309  -218.0037   449.2057 S1            1 RES     
   21912 H2        -314.2418  -218.0598   444.5357 H2            1 RES     
   21913 H2        -310.4967  -216.1868   446.1204 H2            1 RES     
   21914 N3        -313.7921  -223.5486   446.7115 N3            1 RES     
   21915 C0        -313.7400  -222.2109   446.8032 C0            1 RES     
   21916 C0        -314.2726  -221.2525   445.8184 C0            1 RES     
   21917 C0        -314.8638  -222.0235   444.7047 C0            1 RES     
   21918 N3        -315.4529  -221.4798   443.5928 N3            1 RES     
   21919 S1        -315.9552  -222.8083   442.7221 S1            1 RES     
   21920 N3        -315.4594  -224.0925   443.6359 N3            1 RES     
   21921 C0        -314.8820  -223.4880   444.6829 C0            1 RES     
   21922 C0        -314.3412  -224.2552   445.6854 C0            1 RES     
   21923 H4        -313.2471  -221.8704   447.6865 H4            1 RES     
   21924 C5        -313.0870  -197.9529   455.6044 C5            1 RES     
   21925 C5        -313.3189  -199.3279   454.9158 C5            1 RES     
   21926 C5        -312.7958  -199.3935   453.4434 C5            1 RES     
   21927 C5        -312.6896  -200.8289   452.7317 C5            1 RES     
   21928 C5        -313.9853  -201.6033   452.2341 C5            1 RES     
   21929 C5        -313.9591  -203.1877   451.7185 C5            1 RES     
   21930 C5        -313.4138  -203.7796   450.2742 C5            1 RES     
   21931 C5        -313.6893  -205.3468   449.5340 C5            1 RES     
   21932 C5        -312.9062  -206.8593   449.6298 C5            1 RES     
   21933 C5        -313.1037  -208.5518   449.0462 C5            1 RES     
   21934 C5        -312.7104  -209.5487   447.6227 C5            1 RES     
   21935 C5        -312.6831  -208.3339   446.5286 C5            1 RES     
   21936 C5        -313.9348  -207.3594   446.3487 C5            1 RES     
   21937 C5        -313.6268  -205.9471   445.6862 C5            1 RES     
   21938 C5        -314.8825  -205.0578   445.3414 C5            1 RES     
   21939 C5        -315.9625  -205.7898   444.5152 C5            1 RES     
   21940 C5        -315.4336  -206.4399   443.2137 C5            1 RES     
   21941 C5        -315.9406  -205.8333   441.9002 C5            1 RES     
   21942 C5        -315.5910  -204.3628   441.6993 C5            1 RES     
   21943 C5        -312.6416  -211.4443   447.0723 C5            1 RES     
   21944 C0        -313.3232  -213.2715   447.2396 C0            1 RES     
   21945 C5        -314.8210  -212.9921   447.5257 C5            1 RES     
   21946 C5        -315.1461  -211.7787   448.5244 C5            1 RES     
   21947 C5        -315.0980  -212.1819   450.0082 C5            1 RES     
   21948 C5        -313.8396  -212.9309   450.5041 C5            1 RES     
   21949 C5        -312.4864  -212.2466   450.2119 C5            1 RES     
   21950 C5        -311.3061  -212.8111   450.9917 C5            1 RES     
   21951 C5        -311.1582  -214.3223   450.8111 C5            1 RES     
   21952 C5        -310.1341  -214.8808   451.7937 C5            1 RES     
   21953 C5        -310.2404  -216.3995   451.8196 C5            1 RES     
   21954 C5        -309.4062  -217.0253   452.9138 C5            1 RES     
   21955 C5        -316.4821  -211.0614   448.1298 C5            1 RES     
   21956 C5        -316.8339  -209.6044   448.6198 C5            1 RES     
   21957 C5        -317.2929  -209.2883   450.0693 C5            1 RES     
   21958 C5        -318.4785  -210.1578   450.5074 C5            1 RES     
   21959 C5        -319.1637  -209.6682   451.8032 C5            1 RES     
   21960 C5        -320.0869  -210.7491   452.4075 C5            1 RES     
   21961 C5        -321.2054  -211.2785   451.4856 C5            1 RES     
   21962 C5        -322.3062  -210.2619   451.1298 C5            1 RES     
   21963 C5        -323.1073  -209.7246   452.3323 C5            1 RES     
   21964 C5        -323.8312  -210.8202   453.1199 C5            1 RES     
   21965 H6        -312.0041  -197.6967   455.6553 H6            1 RES     
   21966 H6        -313.6173  -197.1225   455.0914 H6            1 RES     
   21967 H6        -313.4523  -197.9771   456.6592 H6            1 RES     
   21968 H6        -312.7694  -200.0694   455.5324 H6            1 RES     
   21969 H6        -314.4031  -199.5573   454.9523 H6            1 RES     
   21970 H6        -313.3524  -198.6524   452.8263 H6            1 RES     
   21971 H6        -311.7501  -199.0096   453.5161 H6            1 RES     
   21972 H6        -312.1348  -201.4713   453.4427 H6            1 RES     
   21973 H6        -312.0601  -200.6679   451.8336 H6            1 RES     
   21974 H6        -314.5062  -200.9475   451.4970 H6            1 RES     
   21975 H6        -314.6375  -201.5852   453.1400 H6            1 RES     
   21976 H6        -315.0474  -203.4187   451.7087 H6            1 RES     
   21977 H6        -313.5056  -203.7602   452.5460 H6            1 RES     
   21978 H6        -313.9468  -203.0682   449.5952 H6            1 RES     
   21979 H6        -312.3456  -203.4944   450.1819 H6            1 RES     
   21980 H6        -313.5799  -205.0449   448.4717 H6            1 RES     
   21981 H6        -314.7823  -205.4776   449.6856 H6            1 RES     
   21982 H6        -311.8423  -206.6009   449.4504 H6            1 RES     
   21983 H6        -313.0130  -206.9912   450.7258 H6            1 RES     
   21984 H6        -314.1500  -208.7519   449.2963 H6            1 RES     
   21985 H6        -312.5137  -209.0572   449.8221 H6            1 RES     
   21986 H6        -311.6061  -209.5344   447.7621 H6            1 RES     
   21987 H6        -312.2784  -208.6419   445.5437 H6            1 RES     
   21988 H6        -311.9178  -207.6109   446.9172 H6            1 RES     
   21989 H6        -314.4039  -207.1060   447.3200 H6            1 RES     
   21990 H6        -314.6722  -207.9074   445.7418 H6            1 RES     
   21991 H6        -313.0306  -206.0798   444.7681 H6            1 RES     
   21992 H6        -312.9739  -205.3263   446.3432 H6            1 RES     
   21993 H6        -314.5610  -204.1418   444.7890 H6            1 RES     
   21994 H6        -315.3696  -204.6979   446.2772 H6            1 RES     
   21995 H6        -316.3527  -206.5887   445.1758 H6            1 RES     
   21996 H6        -316.8480  -205.1445   444.3111 H6            1 RES     
   21997 H6        -314.3323  -206.4841   443.1850 H6            1 RES     
   21998 H6        -315.7772  -207.4955   443.2134 H6            1 RES     
   21999 H6        -317.0423  -205.9552   441.8397 H6            1 RES     
   22000 H6        -315.4807  -206.4181   441.0726 H6            1 RES     
   22001 H6        -314.4942  -204.2038   441.7520 H6            1 RES     
   22002 H6        -315.9480  -204.0500   440.6935 H6            1 RES     
   22003 H6        -316.0989  -203.7330   442.4581 H6            1 RES     
   22004 H6        -311.5624  -211.6475   447.2594 H6            1 RES     
   22005 H6        -312.6066  -211.3174   445.9695 H6            1 RES     
   22006 H6        -315.2105  -212.7543   446.5173 H6            1 RES     
   22007 H6        -315.3118  -213.9184   447.8836 H6            1 RES     
   22008 H6        -314.4415  -210.9744   448.4249 H6            1 RES     
   22009 H6        -315.2001  -211.2623   450.6111 H6            1 RES     
   22010 H6        -315.9669  -212.8323   450.2228 H6            1 RES     
   22011 H6        -313.9569  -213.0323   451.6031 H6            1 RES     
   22012 H6        -313.8421  -213.9467   450.0562 H6            1 RES     
   22013 H6        -312.2187  -212.4112   449.1869 H6            1 RES     
   22014 H6        -312.5468  -211.1653   450.4146 H6            1 RES     
   22015 H6        -310.3682  -212.3062   450.6626 H6            1 RES     
   22016 H6        -311.4813  -212.5745   452.0597 H6            1 RES     
   22017 H6        -312.1253  -214.7950   451.0666 H6            1 RES     
   22018 H6        -310.9024  -214.5859   449.7593 H6            1 RES     
   22019 H6        -309.1059  -214.5515   451.5254 H6            1 RES     
   22020 H6        -310.3873  -214.5065   452.8076 H6            1 RES     
   22021 H6        -309.8838  -216.7808   450.8534 H6            1 RES     
   22022 H6        -311.3021  -216.6931   451.9991 H6            1 RES     
   22023 H6        -308.3334  -216.8168   452.7324 H6            1 RES     
   22024 H6        -309.5791  -218.1229   452.9058 H6            1 RES     
   22025 H6        -309.7176  -216.6209   453.8994 H6            1 RES     
   22026 H6        -317.3386  -211.7410   448.2866 H6            1 RES     
   22027 H6        -316.3802  -210.8977   447.0330 H6            1 RES     
   22028 H6        -316.0271  -208.8994   448.3436 H6            1 RES     
   22029 H6        -317.6945  -209.2909   447.9896 H6            1 RES     
   22030 H6        -316.4657  -209.3714   450.8047 H6            1 RES     
   22031 H6        -317.6172  -208.2193   450.0759 H6            1 RES     
   22032 H6        -318.0806  -211.1826   450.6539 H6            1 RES     
   22033 H6        -319.2475  -210.1669   449.7061 H6            1 RES     
   22034 H6        -319.7263  -208.7259   451.6090 H6            1 RES     
   22035 H6        -318.3942  -209.4436   452.5737 H6            1 RES     
   22036 H6        -320.5246  -210.3811   453.3595 H6            1 RES     
   22037 H6        -319.4399  -211.6146   452.6668 H6            1 RES     
   22038 H6        -321.6760  -212.1547   451.9763 H6            1 RES     
   22039 H6        -320.7561  -211.6639   450.5473 H6            1 RES     
   22040 H6        -321.8560  -209.4055   450.5851 H6            1 RES     
   22041 H6        -323.0190  -210.7613   450.4364 H6            1 RES     
   22042 H6        -322.4438  -209.1567   453.0162 H6            1 RES     
   22043 H6        -323.8740  -209.0193   451.9442 H6            1 RES     
   22044 H6        -324.5173  -211.3884   452.4561 H6            1 RES     
   22045 H6        -323.1100  -211.5200   453.5896 H6            1 RES     
   22046 H6        -324.4283  -210.3579   453.9340 H6            1 RES     
   22047 C0        -312.0801  -228.9260   445.4711 C0            1 RES     
   22048 C0        -311.9877  -228.1844   447.1631 C0            1 RES     
   22049 C0        -313.2742  -228.0811   447.6768 C0            1 RES     
   22050 S1        -313.4439  -227.1339   449.1001 S1            1 RES     
   22051 C0        -311.8934  -226.6187   449.3932 C0            1 RES     
   22052 C0        -311.1530  -227.3228   448.2202 C0            1 RES     
   22053 C0        -314.2987  -228.2702   446.6491 C0            1 RES     
   22054 C0        -313.3624  -228.0418   445.4736 C0            1 RES     
   22055 C0        -313.3992  -226.7454   445.0614 C0            1 RES     
   22056 C0        -314.3780  -225.9546   445.6585 C0            1 RES     
   22057 S1        -315.4389  -226.8344   446.7724 S1            1 RES     
   22058 H2        -310.1038  -227.0813   448.0994 H2            1 RES     
   22059 H2        -312.6171  -226.2840   444.4810 H2            1 RES     
   22060 N3        -313.0915  -224.1018   452.2538 N3            1 RES     
   22061 C0        -312.9947  -224.9448   451.2144 C0            1 RES     
   22062 C0        -311.7536  -225.5543   450.7044 C0            1 RES     
   22063 C0        -310.6311  -225.0642   451.5315 C0            1 RES     
   22064 N3        -309.3145  -225.4038   451.3575 N3            1 RES     
   22065 S1        -308.5312  -224.5895   452.5817 S1            1 RES     
   22066 N3        -309.7425  -223.7734   453.3541 N3            1 RES     
   22067 C0        -310.8234  -224.1434   452.6544 C0            1 RES     
   22068 C0        -312.0553  -223.6555   453.0158 C0            1 RES     
   22069 H4        -313.9341  -225.1460   450.7492 H4            1 RES     
   22070 C5        -317.7223  -243.0414   433.4238 C5            1 RES     
   22071 C5        -317.2100  -242.0795   434.5333 C5            1 RES     
   22072 C5        -316.0471  -241.1422   434.0695 C5            1 RES     
   22073 C5        -315.6427  -239.9025   435.0065 C5            1 RES     
   22074 C5        -314.8388  -240.1171   436.3607 C5            1 RES     
   22075 C5        -314.6092  -238.9096   437.4861 C5            1 RES     
   22076 C5        -313.5588  -237.6350   437.4118 C5            1 RES     
   22077 C5        -313.0121  -236.5626   438.6890 C5            1 RES     
   22078 C5        -313.6049  -235.1068   439.3519 C5            1 RES     
   22079 C5        -313.2491  -233.9592   440.6937 C5            1 RES     
   22080 C5        -312.2245  -232.5401   441.0270 C5            1 RES     
   22081 C5        -311.0431  -232.8889   439.9517 C5            1 RES     
   22082 C5        -310.2866  -234.2944   439.9865 C5            1 RES     
   22083 C5        -309.5737  -234.7339   438.6349 C5            1 RES     
   22084 C5        -308.6764  -236.0279   438.7168 C5            1 RES     
   22085 C5        -307.6396  -236.0016   439.8611 C5            1 RES     
   22086 C5        -306.7239  -234.7536   439.8591 C5            1 RES     
   22087 C5        -305.2411  -235.0030   439.5602 C5            1 RES     
   22088 C5        -304.9602  -235.6197   438.1942 C5            1 RES     
   22089 C5        -312.0243  -231.0943   442.3576 C5            1 RES     
   22090 C0        -312.2095  -230.4670   444.2026 C0            1 RES     
   22091 C5        -311.8995  -231.7719   444.9799 C5            1 RES     
   22092 C5        -312.5240  -233.1259   444.3865 C5            1 RES     
   22093 C5        -313.9705  -233.3807   444.8440 C5            1 RES     
   22094 C5        -314.9873  -232.2287   444.6722 C5            1 RES     
   22095 C5        -315.0963  -231.6292   443.2532 C5            1 RES     
   22096 C5        -316.3197  -230.7509   443.0255 C5            1 RES     
   22097 C5        -316.4314  -229.6291   444.0585 C5            1 RES     
   22098 C5        -317.7855  -228.9354   443.9506 C5            1 RES     
   22099 C5        -317.9986  -228.0581   445.1767 C5            1 RES     
   22100 C5        -319.3982  -227.4926   445.2548 C5            1 RES     
   22101 C5        -311.5780  -234.3479   444.6443 C5            1 RES     
   22102 C5        -311.6873  -235.6880   443.8203 C5            1 RES     
   22103 C5        -312.8144  -236.7314   444.0500 C5            1 RES     
   22104 C5        -312.9272  -237.1526   445.5209 C5            1 RES     
   22105 C5        -313.8061  -238.4040   445.7438 C5            1 RES     
   22106 C5        -314.1971  -238.5732   447.2286 C5            1 RES     
   22107 C5        -313.0281  -238.6662   448.2315 C5            1 RES     
   22108 C5        -312.1567  -239.9308   448.1165 C5            1 RES     
   22109 C5        -312.9012  -241.2574   448.3657 C5            1 RES     
   22110 C5        -313.5344  -241.3481   449.7570 C5            1 RES     
   22111 H6        -318.1158  -242.4816   432.5448 H6            1 RES     
   22112 H6        -316.9363  -243.7409   433.0675 H6            1 RES     
   22113 H6        -318.5693  -243.6614   433.8042 H6            1 RES     
   22114 H6        -318.0850  -241.4609   434.8224 H6            1 RES     
   22115 H6        -316.8926  -242.6890   435.4035 H6            1 RES     
   22116 H6        -315.1691  -241.7652   433.7851 H6            1 RES     
   22117 H6        -316.4284  -240.6965   433.1197 H6            1 RES     
   22118 H6        -316.5919  -239.3774   435.2284 H6            1 RES     
   22119 H6        -315.0137  -239.2456   434.3728 H6            1 RES     
   22120 H6        -313.8756  -240.6179   436.1038 H6            1 RES     
   22121 H6        -315.4402  -240.9055   436.8735 H6            1 RES     
   22122 H6        -314.2478  -239.5040   438.3544 H6            1 RES     
   22123 H6        -315.6194  -238.5405   437.7336 H6            1 RES     
   22124 H6        -312.6366  -238.2005   437.1275 H6            1 RES     
   22125 H6        -313.8106  -237.0513   436.5026 H6            1 RES     
   22126 H6        -312.0257  -236.2902   438.2596 H6            1 RES     
   22127 H6        -312.7831  -237.2824   439.5038 H6            1 RES     
   22128 H6        -313.7789  -234.4772   438.4550 H6            1 RES     
   22129 H6        -314.5979  -235.4971   439.6544 H6            1 RES     
   22130 H6        -313.1380  -234.6394   441.5436 H6            1 RES     
   22131 H6        -314.2503  -233.5202   440.7969 H6            1 RES     
   22132 H6        -312.7434  -231.8453   440.3292 H6            1 RES     
   22133 H6        -310.3242  -232.0576   439.8075 H6            1 RES     
   22134 H6        -311.5656  -232.9646   438.9615 H6            1 RES     
   22135 H6        -310.9782  -235.1302   440.2118 H6            1 RES     
   22136 H6        -309.5465  -234.2303   440.7992 H6            1 RES     
   22137 H6        -308.9583  -233.9068   438.2433 H6            1 RES     
   22138 H6        -310.3192  -234.9199   437.8268 H6            1 RES     
   22139 H6        -308.1441  -236.1849   437.7475 H6            1 RES     
   22140 H6        -309.3130  -236.9304   438.8682 H6            1 RES     
   22141 H6        -308.2299  -236.0051   440.7983 H6            1 RES     
   22142 H6        -307.0402  -236.9399   439.9098 H6            1 RES     
   22143 H6        -307.0954  -233.9623   439.1871 H6            1 RES     
   22144 H6        -306.7592  -234.3214   440.8810 H6            1 RES     
   22145 H6        -304.8119  -235.6570   440.3480 H6            1 RES     
   22146 H6        -304.7283  -234.0167   439.6105 H6            1 RES     
   22147 H6        -305.3749  -234.9897   437.3805 H6            1 RES     
   22148 H6        -303.8586  -235.6936   438.0608 H6            1 RES     
   22149 H6        -305.3857  -236.6421   438.1318 H6            1 RES     
   22150 H6        -312.6109  -230.2966   441.8471 H6            1 RES     
   22151 H6        -311.0003  -230.7474   442.1039 H6            1 RES     
   22152 H6        -310.7951  -231.8197   444.9240 H6            1 RES     
   22153 H6        -312.1938  -231.6530   446.0412 H6            1 RES     
   22154 H6        -312.5625  -233.1159   443.3133 H6            1 RES     
   22155 H6        -314.3531  -234.2519   444.2835 H6            1 RES     
   22156 H6        -313.9569  -233.6422   445.9190 H6            1 RES     
   22157 H6        -315.9748  -232.6466   444.9585 H6            1 RES     
   22158 H6        -314.7249  -231.4249   445.3916 H6            1 RES     
   22159 H6        -314.2703  -230.9675   443.0823 H6            1 RES     
   22160 H6        -315.1002  -232.4277   442.4940 H6            1 RES     
   22161 H6        -316.2738  -230.3084   442.0032 H6            1 RES     
   22162 H6        -317.2075  -231.4106   443.0879 H6            1 RES     
   22163 H6        -316.3941  -230.0849   445.0659 H6            1 RES     
   22164 H6        -315.5912  -228.9031   443.9673 H6            1 RES     
   22165 H6        -317.8541  -228.3426   443.0118 H6            1 RES     
   22166 H6        -318.5750  -229.7157   443.9515 H6            1 RES     
   22167 H6        -317.2907  -227.2203   445.1212 H6            1 RES     
   22168 H6        -317.8308  -228.6640   446.0990 H6            1 RES     
   22169 H6        -319.5809  -226.8247   444.3900 H6            1 RES     
   22170 H6        -319.4934  -226.9145   446.1989 H6            1 RES     
   22171 H6        -320.1365  -228.3214   445.2663 H6            1 RES     
   22172 H6        -311.5198  -234.5614   445.7266 H6            1 RES     
   22173 H6        -310.5777  -233.9807   444.3207 H6            1 RES     
   22174 H6        -311.6138  -235.4810   442.7360 H6            1 RES     
   22175 H6        -310.7531  -236.2439   444.0535 H6            1 RES     
   22176 H6        -313.7994  -236.3823   443.6758 H6            1 RES     
   22177 H6        -312.5455  -237.6308   443.4444 H6            1 RES     
   22178 H6        -313.3569  -236.2868   446.0645 H6            1 RES     
   22179 H6        -311.9159  -237.3796   445.9200 H6            1 RES     
   22180 H6        -313.2862  -239.3130   445.3620 H6            1 RES     
   22181 H6        -314.7570  -238.3017   445.1767 H6            1 RES     
   22182 H6        -314.8650  -239.4529   447.3442 H6            1 RES     
   22183 H6        -314.7958  -237.6789   447.5061 H6            1 RES     
   22184 H6        -313.4446  -238.6137   449.2580 H6            1 RES     
   22185 H6        -312.3796  -237.7725   448.1234 H6            1 RES     
   22186 H6        -311.6861  -239.9650   447.1115 H6            1 RES     
   22187 H6        -311.3382  -239.8490   448.8660 H6            1 RES     
   22188 H6        -313.6832  -241.4127   447.5945 H6            1 RES     
   22189 H6        -312.1652  -242.0852   448.2706 H6            1 RES     
   22190 H6        -312.7630  -241.2154   450.5454 H6            1 RES     
   22191 H6        -314.3286  -240.5848   449.8870 H6            1 RES     
   22192 H6        -314.0043  -242.3459   449.8856 H6            1 RES     
   22193 C0        -313.3592  -219.0809   455.1008 C0            1 RES     
   22194 C0        -314.8423  -220.1049   454.6848 C0            1 RES     
   22195 C0        -314.8437  -221.2373   455.4894 C0            1 RES     
   22196 S1        -315.9551  -222.4720   455.0512 S1            1 RES     
   22197 C0        -316.6996  -221.8449   453.7067 C0            1 RES     
   22198 C0        -315.9856  -220.4652   453.6267 C0            1 RES     
   22199 C0        -313.5596  -221.4424   456.1606 C0            1 RES     
   22200 C0        -312.7736  -220.5170   455.2461 C0            1 RES     
   22201 C0        -312.1864  -221.2104   454.2330 C0            1 RES     
   22202 C0        -312.2713  -222.5973   454.3286 C0            1 RES     
   22203 S1        -313.0535  -223.1739   455.8105 S1            1 RES     
   22204 H2        -316.2109  -219.8564   452.7593 H2            1 RES     
   22205 H2        -311.8599  -220.7550   453.3124 H2            1 RES     
   22206 N3        -318.5371  -225.2998   452.9062 N3            1 RES     
   22207 C0        -317.7384  -224.3210   453.3585 C0            1 RES     
   22208 C0        -317.8000  -222.9011   452.9684 C0            1 RES     
   22209 C0        -318.8888  -222.7459   451.9811 C0            1 RES     
   22210 N3        -319.2469  -221.5678   451.3788 N3            1 RES     
   22211 S1        -320.5332  -221.9944   450.4098 S1            1 RES     
   22212 N3        -320.6935  -223.6204   450.6559 N3            1 RES     
   22213 C0        -319.7189  -223.8696   451.5408 C0            1 RES     
   22214 C0        -319.5417  -225.1520   451.9993 C0            1 RES     
   22215 H4        -317.0054  -224.6659   454.0535 H4            1 RES     
   22216 C5        -302.3476  -209.6155   467.9602 C5            1 RES     
   22217 C5        -303.4096  -210.2786   467.0378 C5            1 RES     
   22218 C5        -303.2548  -209.9063   465.5266 C5            1 RES     
   22219 C5        -304.0778  -210.7557   464.4405 C5            1 RES     
   22220 C5        -305.6451  -210.5657   464.2569 C5            1 RES     
   22221 C5        -306.5846  -211.5830   463.3299 C5            1 RES     
   22222 C5        -306.6990  -211.6432   461.6816 C5            1 RES     
   22223 C5        -307.9114  -212.4140   460.6736 C5            1 RES     
   22224 C5        -308.0948  -213.9812   460.0254 C5            1 RES     
   22225 C5        -309.2878  -214.9536   459.0898 C5            1 RES     
   22226 C5        -309.7474  -215.2716   457.3980 C5            1 RES     
   22227 C5        -309.2273  -213.8506   456.7785 C5            1 RES     
   22228 C5        -309.7383  -212.4583   457.3694 C5            1 RES     
   22229 C5        -308.8102  -211.1992   457.0839 C5            1 RES     
   22230 C5        -309.3980  -209.7983   457.5061 C5            1 RES     
   22231 C5        -310.8184  -209.5245   456.9651 C5            1 RES     
   22232 C5        -310.9555  -209.6864   455.4317 C5            1 RES     
   22233 C5        -311.2440  -208.4059   454.6395 C5            1 RES     
   22234 C5        -310.1756  -207.3250   454.7623 C5            1 RES     
   22235 C5        -310.8302  -216.5346   456.3334 C5            1 RES     
   22236 C0        -312.3730  -217.7321   456.2001 C0            1 RES     
   22237 C5        -313.3954  -216.9800   457.0902 C5            1 RES     
   22238 C5        -312.8283  -216.3345   458.4456 C5            1 RES     
   22239 C5        -312.7745  -217.3295   459.6176 C5            1 RES     
   22240 C5        -312.0824  -218.6894   459.3686 C5            1 RES     
   22241 C5        -310.6447  -218.6240   458.8085 C5            1 RES     
   22242 C5        -309.8686  -219.9318   458.8925 C5            1 RES     
   22243 C5        -310.6144  -221.0945   458.2369 C5            1 RES     
   22244 C5        -309.9299  -222.4189   458.5594 C5            1 RES     
   22245 C5        -310.8544  -223.5671   458.1780 C5            1 RES     
   22246 C5        -310.3445  -224.9095   458.6497 C5            1 RES     
   22247 C5        -313.5850  -215.0101   458.8035 C5            1 RES     
   22248 C5        -312.9862  -213.9369   459.7917 C5            1 RES     
   22249 C5        -312.9535  -214.1321   461.3320 C5            1 RES     
   22250 C5        -314.3334  -214.4809   461.9043 C5            1 RES     
   22251 C5        -314.4138  -214.3726   463.4438 C5            1 RES     
   22252 C5        -315.6701  -215.0759   464.0034 C5            1 RES     
   22253 C5        -317.0249  -214.5847   463.4516 C5            1 RES     
   22254 C5        -317.4175  -213.1481   463.8438 C5            1 RES     
   22255 C5        -317.5811  -212.9100   465.3581 C5            1 RES     
   22256 C5        -318.6533  -213.7942   466.0010 C5            1 RES     
   22257 H6        -301.3130  -209.9167   467.6778 H6            1 RES     
   22258 H6        -302.4027  -208.5060   467.9476 H6            1 RES     
   22259 H6        -302.4901  -209.9418   469.0184 H6            1 RES     
   22260 H6        -303.2729  -211.3733   467.1605 H6            1 RES     
   22261 H6        -304.4164  -209.9948   467.4055 H6            1 RES     
   22262 H6        -303.3976  -208.8086   465.4059 H6            1 RES     
   22263 H6        -302.1764  -210.1013   465.3145 H6            1 RES     
   22264 H6        -303.8667  -211.8173   464.6735 H6            1 RES     
   22265 H6        -303.6185  -210.5090   463.4623 H6            1 RES     
   22266 H6        -305.8252  -209.4970   463.9923 H6            1 RES     
   22267 H6        -306.0224  -210.6662   465.3028 H6            1 RES     
   22268 H6        -307.6031  -211.2780   463.6578 H6            1 RES     
   22269 H6        -306.3989  -212.5972   463.7235 H6            1 RES     
   22270 H6        -306.8488  -210.5516   461.4889 H6            1 RES     
   22271 H6        -305.6833  -211.8517   461.2869 H6            1 RES     
   22272 H6        -307.8251  -211.7548   459.7850 H6            1 RES     
   22273 H6        -308.8522  -212.1005   461.1748 H6            1 RES     
   22274 H6        -307.1114  -214.1699   459.5476 H6            1 RES     
   22275 H6        -308.0794  -214.5239   460.9924 H6            1 RES     
   22276 H6        -310.2132  -214.7586   459.6403 H6            1 RES     
   22277 H6        -308.9616  -215.9529   459.4068 H6            1 RES     
   22278 H6        -308.8153  -215.8101   457.1149 H6            1 RES     
   22279 H6        -309.2254  -213.8316   455.6702 H6            1 RES     
   22280 H6        -308.1392  -213.7978   457.0480 H6            1 RES     
   22281 H6        -309.8252  -212.4853   458.4737 H6            1 RES     
   22282 H6        -310.7416  -212.2900   456.9483 H6            1 RES     
   22283 H6        -308.5440  -211.1579   456.0145 H6            1 RES     
   22284 H6        -307.8275  -211.2958   457.6018 H6            1 RES     
   22285 H6        -308.7163  -208.9809   457.1675 H6            1 RES     
   22286 H6        -309.4464  -209.7186   458.6169 H6            1 RES     
   22287 H6        -311.4739  -210.2685   457.4588 H6            1 RES     
   22288 H6        -311.2166  -208.5398   457.3026 H6            1 RES     
   22289 H6        -310.0851  -210.1945   454.9845 H6            1 RES     
   22290 H6        -311.8213  -210.3572   455.2506 H6            1 RES     
   22291 H6        -312.2211  -207.9875   454.9597 H6            1 RES     
   22292 H6        -311.3253  -208.6969   453.5685 H6            1 RES     
   22293 H6        -309.1832  -207.7089   454.4479 H6            1 RES     
   22294 H6        -310.4551  -206.4765   454.0999 H6            1 RES     
   22295 H6        -310.1196  -206.9471   455.8037 H6            1 RES     
   22296 H6        -310.0315  -217.2529   456.0382 H6            1 RES     
   22297 H6        -310.9083  -215.9611   455.3857 H6            1 RES     
   22298 H6        -313.7435  -216.1744   456.4156 H6            1 RES     
   22299 H6        -314.2524  -217.6442   457.3172 H6            1 RES     
   22300 H6        -311.8229  -215.9747   458.3312 H6            1 RES     
   22301 H6        -312.2515  -216.8357   460.4556 H6            1 RES     
   22302 H6        -313.8103  -217.5480   459.9394 H6            1 RES     
   22303 H6        -312.0581  -219.2051   460.3511 H6            1 RES     
   22304 H6        -312.7193  -219.2810   458.6780 H6            1 RES     
   22305 H6        -310.6817  -218.4148   457.7576 H6            1 RES     
   22306 H6        -310.0622  -217.8446   459.3254 H6            1 RES     
   22307 H6        -308.8755  -219.8062   458.4016 H6            1 RES     
   22308 H6        -309.7093  -220.1447   459.9679 H6            1 RES     
   22309 H6        -311.6253  -221.1494   458.6831 H6            1 RES     
   22310 H6        -310.7203  -220.9455   457.1379 H6            1 RES     
   22311 H6        -308.9507  -222.4971   458.0373 H6            1 RES     
   22312 H6        -309.7667  -222.4659   459.6563 H6            1 RES     
   22313 H6        -310.9295  -223.5922   457.0826 H6            1 RES     
   22314 H6        -311.8555  -223.4068   458.6447 H6            1 RES     
   22315 H6        -309.3818  -225.1402   458.1524 H6            1 RES     
   22316 H6        -311.0954  -225.6850   458.3862 H6            1 RES     
   22317 H6        -310.2166  -224.8948   459.7522 H6            1 RES     
   22318 H6        -314.6362  -215.2312   459.0612 H6            1 RES     
   22319 H6        -313.5870  -214.4400   457.8469 H6            1 RES     
   22320 H6        -311.9808  -213.6211   459.4546 H6            1 RES     
   22321 H6        -313.6164  -213.0325   459.6474 H6            1 RES     
   22322 H6        -312.2060  -214.8891   461.6487 H6            1 RES     
   22323 H6        -312.6247  -213.1587   461.7705 H6            1 RES     
   22324 H6        -314.5530  -215.5204   461.5862 H6            1 RES     
   22325 H6        -315.0950  -213.7922   461.4811 H6            1 RES     
   22326 H6        -314.3822  -213.3034   463.7569 H6            1 RES     
   22327 H6        -313.5373  -214.8798   463.9027 H6            1 RES     
   22328 H6        -315.6709  -215.0189   465.1125 H6            1 RES     
   22329 H6        -315.5798  -216.1514   463.7388 H6            1 RES     
   22330 H6        -317.8162  -215.2778   463.8028 H6            1 RES     
   22331 H6        -317.0221  -214.6665   462.3452 H6            1 RES     
   22332 H6        -316.6625  -212.4374   463.4468 H6            1 RES     
   22333 H6        -318.3877  -212.9143   463.3515 H6            1 RES     
   22334 H6        -316.6147  -213.0644   465.8804 H6            1 RES     
   22335 H6        -317.8786  -211.8492   465.5068 H6            1 RES     
   22336 H6        -319.6351  -213.6390   465.5047 H6            1 RES     
   22337 H6        -318.3769  -214.8668   465.9426 H6            1 RES     
   22338 H6        -318.7541  -213.5320   467.0752 H6            1 RES     
   22339 C0        -320.3184  -229.6956   449.6062 C0            1 RES     
   22340 C0        -319.5606  -229.9103   451.2797 C0            1 RES     
   22341 C0        -320.4716  -229.4900   452.2404 C0            1 RES     
   22342 S1        -319.8569  -229.3095   453.8346 S1            1 RES     
   22343 C0        -318.2580  -229.7230   453.6676 C0            1 RES     
   22344 C0        -318.2317  -230.0774   452.1532 C0            1 RES     
   22345 C0        -321.5780  -228.7281   451.6599 C0            1 RES     
   22346 C0        -320.8752  -228.4412   450.3430 C0            1 RES     
   22347 C0        -320.2528  -227.2314   450.3721 C0            1 RES     
   22348 C0        -320.5181  -226.4482   451.4928 C0            1 RES     
   22349 S1        -321.6936  -227.1603   452.6114 S1            1 RES     
   22350 H2        -317.2603  -230.2989   451.7277 H2            1 RES     
   22351 H2        -319.4514  -226.9593   449.7048 H2            1 RES     
   22352 N3        -317.3827  -228.5037   457.3691 N3            1 RES     
   22353 C0        -317.9376  -228.7414   456.1707 C0            1 RES     
   22354 C0        -317.3436  -229.5379   455.0823 C0            1 RES     
   22355 C0        -316.0225  -230.0193   455.5376 C0            1 RES     
   22356 N3        -315.1634  -230.7881   454.7961 N3            1 RES     
   22357 S1        -313.8759  -231.0436   455.8221 S1            1 RES     
   22358 N3        -314.2890  -230.2159   457.1911 N3            1 RES     
   22359 C0        -315.4891  -229.7158   456.8677 C0            1 RES     
   22360 C0        -316.1668  -228.9522   457.7862 C0            1 RES     
   22361 H4        -318.8909  -228.2766   456.0508 H4            1 RES     
   22362 C5        -334.6826  -232.8501   436.9597 C5            1 RES     
   22363 C5        -333.5531  -232.8198   438.0283 C5            1 RES     
   22364 C5        -332.1582  -232.3967   437.4615 C5            1 RES     
   22365 C5        -330.9905  -232.0257   438.4994 C5            1 RES     
   22366 C5        -330.2357  -233.1498   439.3316 C5            1 RES     
   22367 C5        -329.1984  -232.8104   440.5910 C5            1 RES     
   22368 C5        -327.6459  -232.2479   440.5080 C5            1 RES     
   22369 C5        -326.4002  -232.2212   441.7438 C5            1 RES     
   22370 C5        -325.9711  -231.1195   442.9735 C5            1 RES     
   22371 C5        -324.8292  -230.9785   444.3593 C5            1 RES     
   22372 C5        -323.1523  -230.4732   444.6872 C5            1 RES     
   22373 C5        -322.5532  -230.7889   443.1989 C5            1 RES     
   22374 C5        -322.7088  -232.2339   442.5380 C5            1 RES     
   22375 C5        -322.5870  -232.2905   440.9536 C5            1 RES     
   22376 C5        -322.5583  -233.7317   440.3145 C5            1 RES     
   22377 C5        -321.5134  -234.6778   440.9457 C5            1 RES     
   22378 C5        -320.0740  -234.1086   440.9686 C5            1 RES     
   22379 C5        -319.0492  -234.8251   440.0815 C5            1 RES     
   22380 C5        -319.3806  -234.8226   438.5932 C5            1 RES     
   22381 C5        -321.9740  -230.0262   446.2080 C5            1 RES     
   22382 C0        -321.4817  -230.2755   448.0860 C0            1 RES     
   22383 C5        -321.8271  -231.7749   448.2748 C5            1 RES     
   22384 C5        -323.1829  -232.2906   447.5881 C5            1 RES     
   22385 C5        -324.4321  -232.0538   448.4540 C5            1 RES     
   22386 C5        -324.6516  -230.6305   449.0167 C5            1 RES     
   22387 C5        -324.6359  -229.4844   447.9817 C5            1 RES     
   22388 C5        -325.1847  -228.1583   448.4919 C5            1 RES     
   22389 C5        -324.4885  -227.6939   449.7717 C5            1 RES     
   22390 C5        -325.2272  -226.5073   450.3820 C5            1 RES     
   22391 C5        -324.7184  -226.2744   451.7981 C5            1 RES     
   22392 C5        -325.5355  -225.2502   452.5518 C5            1 RES     
   22393 C5        -323.0463  -233.7754   447.1070 C5            1 RES     
   22394 C5        -324.0104  -234.4054   446.0298 C5            1 RES     
   22395 C5        -325.4725  -234.8228   446.3459 C5            1 RES     
   22396 C5        -325.5622  -235.7550   447.5611 C5            1 RES     
   22397 C5        -326.9380  -236.4412   447.7183 C5            1 RES     
   22398 C5        -327.1130  -237.0602   449.1226 C5            1 RES     
   22399 C5        -326.0489  -238.0948   449.5453 C5            1 RES     
   22400 C5        -326.0566  -239.4142   448.7509 C5            1 RES     
   22401 C5        -327.3601  -240.2300   448.8594 C5            1 RES     
   22402 C5        -327.7043  -240.6394   450.2942 C5            1 RES     
   22403 H6        -334.8347  -231.8493   436.4946 H6            1 RES     
   22404 H6        -334.4856  -233.5841   436.1494 H6            1 RES     
   22405 H6        -335.6571  -233.1283   437.4283 H6            1 RES     
   22406 H6        -333.8785  -232.0797   438.7888 H6            1 RES     
   22407 H6        -333.4922  -233.8217   438.4993 H6            1 RES     
   22408 H6        -331.8320  -233.1437   436.7028 H6            1 RES     
   22409 H6        -332.3749  -231.4589   436.8963 H6            1 RES     
   22410 H6        -331.4391  -231.2958   439.2008 H6            1 RES     
   22411 H6        -330.2142  -231.5098   437.8992 H6            1 RES     
   22412 H6        -329.7678  -233.8513   438.6012 H6            1 RES     
   22413 H6        -331.0816  -233.7266   439.7766 H6            1 RES     
   22414 H6        -329.0935  -233.8191   441.0484 H6            1 RES     
   22415 H6        -329.7792  -232.1866   441.2922 H6            1 RES     
   22416 H6        -327.2518  -232.9696   439.7496 H6            1 RES     
   22417 H6        -327.6738  -231.2776   439.9707 H6            1 RES     
   22418 H6        -325.5124  -232.2537   441.0787 H6            1 RES     
   22419 H6        -326.4814  -233.2455   442.1666 H6            1 RES     
   22420 H6        -325.9080  -230.1533   442.4317 H6            1 RES     
   22421 H6        -326.9499  -231.1195   443.4949 H6            1 RES     
   22422 H6        -324.9791  -231.9355   444.8683 H6            1 RES     
   22423 H6        -325.3870  -230.2401   444.9503 H6            1 RES     
   22424 H6        -323.3029  -229.3924   444.4679 H6            1 RES     
   22425 H6        -321.5284  -230.3944   443.0477 H6            1 RES     
   22426 H6        -323.1807  -230.1771   442.4980 H6            1 RES     
   22427 H6        -323.7008  -232.6800   442.7491 H6            1 RES     
   22428 H6        -321.9385  -232.8720   442.9981 H6            1 RES     
   22429 H6        -321.6887  -231.7437   440.6216 H6            1 RES     
   22430 H6        -323.4285  -231.7471   440.4639 H6            1 RES     
   22431 H6        -322.3660  -233.6584   439.2167 H6            1 RES     
   22432 H6        -323.5541  -234.2212   440.4206 H6            1 RES     
   22433 H6        -321.8471  -234.8363   441.9899 H6            1 RES     
   22434 H6        -321.5361  -235.6954   440.4919 H6            1 RES     
   22435 H6        -320.0467  -233.0292   440.7454 H6            1 RES     
   22436 H6        -319.6995  -234.2104   442.0086 H6            1 RES     
   22437 H6        -318.9348  -235.8744   440.4254 H6            1 RES     
   22438 H6        -318.0756  -234.3052   440.2237 H6            1 RES     
   22439 H6        -319.5006  -233.7868   438.2141 H6            1 RES     
   22440 H6        -318.5433  -235.3075   438.0450 H6            1 RES     
   22441 H6        -320.3049  -235.4038   438.3976 H6            1 RES     
   22442 H6        -322.0928  -228.9186   446.2089 H6            1 RES     
   22443 H6        -320.9861  -230.0954   445.7055 H6            1 RES     
   22444 H6        -320.9606  -232.2751   447.8014 H6            1 RES     
   22445 H6        -321.8314  -232.0241   449.3541 H6            1 RES     
   22446 H6        -323.3809  -231.7889   446.6594 H6            1 RES     
   22447 H6        -325.3174  -232.3146   447.8475 H6            1 RES     
   22448 H6        -324.3935  -232.7413   449.3199 H6            1 RES     
   22449 H6        -325.6438  -230.6473   449.5136 H6            1 RES     
   22450 H6        -323.8764  -230.4396   449.7882 H6            1 RES     
   22451 H6        -323.6219  -229.2576   447.7177 H6            1 RES     
   22452 H6        -325.2034  -229.7675   447.0808 H6            1 RES     
   22453 H6        -325.0660  -227.3794   447.7032 H6            1 RES     
   22454 H6        -326.2655  -228.3081   448.6839 H6            1 RES     
   22455 H6        -324.5491  -228.5133   450.5124 H6            1 RES     
   22456 H6        -323.4145  -227.4586   449.5913 H6            1 RES     
   22457 H6        -325.1052  -225.5976   449.7533 H6            1 RES     
   22458 H6        -326.3044  -226.7670   450.4480 H6            1 RES     
   22459 H6        -323.6847  -225.9093   451.7311 H6            1 RES     
   22460 H6        -324.7693  -227.2305   452.3716 H6            1 RES     
   22461 H6        -325.4532  -224.2646   452.0527 H6            1 RES     
   22462 H6        -325.1414  -225.1772   453.5882 H6            1 RES     
   22463 H6        -326.5960  -225.5751   452.5941 H6            1 RES     
   22464 H6        -322.9435  -234.4485   447.9768 H6            1 RES     
   22465 H6        -322.0777  -233.7872   446.5576 H6            1 RES     
   22466 H6        -324.0096  -233.7945   445.1073 H6            1 RES     
   22467 H6        -323.5182  -235.3548   445.7260 H6            1 RES     
   22468 H6        -326.1435  -233.9494   446.4838 H6            1 RES     
   22469 H6        -325.8485  -235.3734   445.4496 H6            1 RES     
   22470 H6        -325.3461  -235.1321   448.4527 H6            1 RES     
   22471 H6        -324.7981  -236.5559   447.4709 H6            1 RES     
   22472 H6        -327.0783  -237.2096   446.9232 H6            1 RES     
   22473 H6        -327.7487  -235.6894   447.6015 H6            1 RES     
   22474 H6        -328.1275  -237.5022   449.2155 H6            1 RES     
   22475 H6        -327.0617  -236.2223   449.8508 H6            1 RES     
   22476 H6        -326.1954  -238.3262   450.6199 H6            1 RES     
   22477 H6        -325.0412  -237.6367   449.4703 H6            1 RES     
   22478 H6        -325.8524  -239.2019   447.6803 H6            1 RES     
   22479 H6        -325.2226  -240.0450   449.1314 H6            1 RES     
   22480 H6        -328.2085  -239.6629   448.4246 H6            1 RES     
   22481 H6        -327.2330  -241.1579   448.2604 H6            1 RES     
   22482 H6        -326.8743  -241.2270   450.7413 H6            1 RES     
   22483 H6        -327.9090  -239.7514   450.9267 H6            1 RES     
   22484 H6        -328.6205  -241.2667   450.2905 H6            1 RES     
   22485 C0        -314.3617  -225.7377   461.4445 C0            1 RES     
   22486 C0        -316.2073  -225.6959   461.3295 C0            1 RES     
   22487 C0        -316.7071  -226.9354   461.7082 C0            1 RES     
   22488 S1        -318.3695  -227.2121   461.3740 S1            1 RES     
   22489 C0        -318.8455  -225.7969   460.6488 C0            1 RES     
   22490 C0        -317.5105  -225.0014   460.7162 C0            1 RES     
   22491 C0        -315.6644  -227.9607   461.7630 C0            1 RES     
   22492 C0        -314.6561  -227.1801   460.9355 C0            1 RES     
   22493 C0        -314.7234  -227.5296   459.6220 C0            1 RES     
   22494 C0        -315.5462  -228.6155   459.3326 C0            1 RES     
   22495 S1        -316.2670  -229.3780   460.7607 S1            1 RES     
   22496 H2        -317.4961  -224.0419   460.2133 H2            1 RES     
   22497 H2        -314.3519  -226.9098   458.8225 H2            1 RES     
   22498 N3        -322.3896  -227.3222   459.6162 N3            1 RES     
   22499 C0        -321.1223  -227.1132   460.0042 C0            1 RES     
   22500 C0        -320.4481  -225.8060   460.0981 C0            1 RES     
   22501 C0        -321.4097  -224.7653   459.6777 C0            1 RES     
   22502 N3        -321.1458  -223.4213   459.6240 N3            1 RES     
   22503 S1        -322.5881  -222.7550   459.1230 S1            1 RES     
   22504 N3        -323.5808  -224.0608   458.9243 N3            1 RES     
   22505 C0        -322.7811  -225.0787   459.2696 C0            1 RES     
   22506 C0        -323.2737  -226.3602   459.2332 C0            1 RES     
   22507 H4        -320.6033  -228.0146   460.2437 H4            1 RES     
   22508 C5        -298.0593  -228.9395   471.4543 C5            1 RES     
   22509 C5        -299.4422  -228.5773   470.8419 C5            1 RES     
   22510 C5        -299.3518  -227.6839   469.5614 C5            1 RES     
   22511 C5        -300.6689  -227.4996   468.6617 C5            1 RES     
   22512 C5        -301.8731  -226.5778   469.1374 C5            1 RES     
   22513 C5        -303.3530  -226.5437   468.3720 C5            1 RES     
   22514 C5        -303.7441  -225.8075   466.9442 C5            1 RES     
   22515 C5        -305.3232  -225.4247   466.2809 C5            1 RES     
   22516 C5        -306.4457  -226.2770   465.3198 C5            1 RES     
   22517 C5        -308.1090  -226.0922   464.6541 C5            1 RES     
   22518 C5        -308.9320  -225.3850   463.2408 C5            1 RES     
   22519 C5        -307.8189  -224.2320   462.9169 C5            1 RES     
   22520 C5        -307.3697  -223.1838   464.0343 C5            1 RES     
   22521 C5        -305.9596  -222.4855   463.8058 C5            1 RES     
   22522 C5        -305.5955  -221.3218   464.8055 C5            1 RES     
   22523 C5        -306.6906  -220.2406   464.9361 C5            1 RES     
   22524 C5        -307.1382  -219.6247   463.5884 C5            1 RES     
   22525 C5        -306.7911  -218.1473   463.3714 C5            1 RES     
   22526 C5        -305.2997  -217.8312   463.3987 C5            1 RES     
   22527 C5        -310.6872  -225.4180   462.3357 C5            1 RES     
   22528 C0        -312.6323  -225.6107   462.4413 C0            1 RES     
   22529 C5        -312.9078  -224.9685   463.8251 C5            1 RES     
   22530 C5        -311.8694  -225.3184   464.9976 C5            1 RES     
   22531 C5        -312.1890  -226.6385   465.7199 C5            1 RES     
   22532 C5        -312.4175  -227.8934   464.8461 C5            1 RES     
   22533 C5        -311.2968  -228.2284   463.8377 C5            1 RES     
   22534 C5        -311.3744  -229.6277   463.2414 C5            1 RES     
   22535 C5        -312.7332  -229.9132   462.6009 C5            1 RES     
   22536 C5        -312.8565  -231.3909   462.2440 C5            1 RES     
   22537 C5        -314.3091  -231.7079   461.9157 C5            1 RES     
   22538 C5        -314.5611  -233.1891   461.7498 C5            1 RES     
   22539 C5        -311.6960  -224.1111   465.9811 C5            1 RES     
   22540 C5        -310.4535  -223.9783   466.9431 C5            1 RES     
   22541 C5        -310.2880  -224.8295   468.2315 C5            1 RES     
   22542 C5        -311.5166  -224.7462   469.1464 C5            1 RES     
   22543 C5        -311.2753  -225.3105   470.5647 C5            1 RES     
   22544 C5        -312.6014  -225.5525   471.3190 C5            1 RES     
   22545 C5        -313.5241  -224.3261   471.4792 C5            1 RES     
   22546 C5        -312.9856  -223.2074   472.3904 C5            1 RES     
   22547 C5        -312.7444  -223.6226   473.8553 C5            1 RES     
   22548 C5        -314.0071  -224.1239   474.5617 C5            1 RES     
   22549 H6        -297.4266  -229.5057   470.7332 H6            1 RES     
   22550 H6        -297.4914  -228.0449   471.7878 H6            1 RES     
   22551 H6        -298.1869  -229.6012   472.3445 H6            1 RES     
   22552 H6        -299.9177  -229.5454   470.5795 H6            1 RES     
   22553 H6        -300.0482  -228.0749   471.6228 H6            1 RES     
   22554 H6        -298.8793  -226.7117   469.8288 H6            1 RES     
   22555 H6        -298.6131  -228.2179   468.9171 H6            1 RES     
   22556 H6        -301.0477  -228.5238   468.4784 H6            1 RES     
   22557 H6        -300.3140  -227.0755   467.7010 H6            1 RES     
   22558 H6        -301.4703  -225.5477   469.2833 H6            1 RES     
   22559 H6        -302.0693  -226.9543   470.1699 H6            1 RES     
   22560 H6        -303.9631  -226.0019   469.1284 H6            1 RES     
   22561 H6        -303.7004  -227.5911   468.3536 H6            1 RES     
   22562 H6        -303.2923  -224.8049   467.1490 H6            1 RES     
   22563 H6        -303.0935  -226.2431   466.1582 H6            1 RES     
   22564 H6        -305.0299  -224.5541   465.6582 H6            1 RES     
   22565 H6        -305.8375  -224.9877   467.1635 H6            1 RES     
   22566 H6        -305.8237  -226.6461   464.4784 H6            1 RES     
   22567 H6        -306.5788  -227.1366   466.0077 H6            1 RES     
   22568 H6        -308.6685  -225.7762   465.5399 H6            1 RES     
   22569 H6        -308.3457  -227.1560   464.5205 H6            1 RES     
   22570 H6        -308.5146  -226.0906   462.4879 H6            1 RES     
   22571 H6        -307.9846  -223.7254   461.9449 H6            1 RES     
   22572 H6        -306.8578  -224.7912   462.7658 H6            1 RES     
   22573 H6        -307.2786  -223.6573   465.0319 H6            1 RES     
   22574 H6        -308.1634  -222.4224   464.0849 H6            1 RES     
   22575 H6        -305.8908  -222.0956   462.7765 H6            1 RES     
   22576 H6        -305.1275  -223.2250   463.8691 H6            1 RES     
   22577 H6        -304.6400  -220.8353   464.4927 H6            1 RES     
   22578 H6        -305.4127  -221.7320   465.8257 H6            1 RES     
   22579 H6        -307.5592  -220.7504   465.3973 H6            1 RES     
   22580 H6        -306.4159  -219.4473   465.6691 H6            1 RES     
   22581 H6        -306.7807  -220.2063   462.7226 H6            1 RES     
   22582 H6        -308.2461  -219.6846   463.5543 H6            1 RES     
   22583 H6        -307.3058  -217.5319   464.1387 H6            1 RES     
   22584 H6        -307.1905  -217.8622   462.3727 H6            1 RES     
   22585 H6        -304.7524  -218.4290   462.6409 H6            1 RES     
   22586 H6        -305.1638  -216.7521   463.1665 H6            1 RES     
   22587 H6        -304.8775  -218.0243   464.4061 H6            1 RES     
   22588 H6        -310.4803  -226.1994   461.5691 H6            1 RES     
   22589 H6        -310.5850  -224.5154   461.6969 H6            1 RES     
   22590 H6        -312.8537  -223.8871   463.5952 H6            1 RES     
   22591 H6        -313.9394  -225.2086   464.1494 H6            1 RES     
   22592 H6        -310.8672  -225.4311   464.6286 H6            1 RES     
   22593 H6        -311.3537  -226.8571   466.4085 H6            1 RES     
   22594 H6        -313.1045  -226.4943   466.3243 H6            1 RES     
   22595 H6        -312.5259  -228.7427   465.5523 H6            1 RES     
   22596 H6        -313.3763  -227.7661   464.3011 H6            1 RES     
   22597 H6        -311.3797  -227.5820   462.9864 H6            1 RES     
   22598 H6        -310.3062  -228.1080   464.3047 H6            1 RES     
   22599 H6        -310.5724  -229.7503   462.4767 H6            1 RES     
   22600 H6        -311.1898  -230.3420   464.0679 H6            1 RES     
   22601 H6        -313.5176  -229.7077   463.3534 H6            1 RES     
   22602 H6        -312.9133  -229.2618   461.7151 H6            1 RES     
   22603 H6        -312.1838  -231.6523   461.3974 H6            1 RES     
   22604 H6        -312.5733  -231.9872   463.1364 H6            1 RES     
   22605 H6        -314.5601  -231.2075   460.9708 H6            1 RES     
   22606 H6        -314.9631  -231.3483   462.7456 H6            1 RES     
   22607 H6        -313.9825  -233.5730   460.8866 H6            1 RES     
   22608 H6        -315.6465  -233.3447   461.5699 H6            1 RES     
   22609 H6        -314.2717  -233.7241   462.6783 H6            1 RES     
   22610 H6        -312.6357  -223.9336   466.5339 H6            1 RES     
   22611 H6        -311.5350  -223.2407   465.3052 H6            1 RES     
   22612 H6        -309.5114  -224.0264   466.3650 H6            1 RES     
   22613 H6        -310.4900  -222.9310   467.3142 H6            1 RES     
   22614 H6        -310.0463  -225.8904   468.0118 H6            1 RES     
   22615 H6        -309.4096  -224.4110   468.7802 H6            1 RES     
   22616 H6        -312.3231  -225.3180   468.6439 H6            1 RES     
   22617 H6        -311.8247  -223.6850   469.2574 H6            1 RES     
   22618 H6        -310.6066  -224.6304   471.1413 H6            1 RES     
   22619 H6        -310.7670  -226.2970   470.4955 H6            1 RES     
   22620 H6        -312.3926  -226.0007   472.3133 H6            1 RES     
   22621 H6        -313.1662  -226.3131   470.7380 H6            1 RES     
   22622 H6        -314.4983  -224.6730   471.8801 H6            1 RES     
   22623 H6        -313.7446  -223.8993   470.4792 H6            1 RES     
   22624 H6        -312.0387  -222.8105   471.9678 H6            1 RES     
   22625 H6        -313.7274  -222.3779   472.3851 H6            1 RES     
   22626 H6        -311.9570  -224.4019   473.9116 H6            1 RES     
   22627 H6        -312.3756  -222.7306   474.4068 H6            1 RES     
   22628 H6        -314.8025  -223.3488   474.5343 H6            1 RES     
   22629 H6        -314.3853  -225.0560   474.0942 H6            1 RES     
   22630 H6        -313.7718  -224.3525   475.6225 H6            1 RES     
   22631 C0        -326.8103  -228.4946   456.0849 C0            1 RES     
   22632 C0        -326.0420  -229.7405   457.2157 C0            1 RES     
   22633 C0        -326.3990  -229.4376   458.5235 C0            1 RES     
   22634 S1        -325.5412  -230.2769   459.7530 S1            1 RES     
   22635 C0        -324.4914  -231.2312   458.8913 C0            1 RES     
   22636 C0        -324.9092  -230.8458   457.4433 C0            1 RES     
   22637 C0        -326.9735  -228.0971   458.6453 C0            1 RES     
   22638 C0        -326.4516  -227.5986   457.3075 C0            1 RES     
   22639 C0        -325.2680  -226.9435   457.4555 C0            1 RES     
   22640 C0        -324.8708  -226.7141   458.7706 C0            1 RES     
   22641 S1        -326.0462  -227.2471   459.9849 S1            1 RES     
   22642 H2        -324.3069  -231.2583   456.6428 H2            1 RES     
   22643 H2        -324.5696  -226.7889   456.6494 H2            1 RES     
   22644 N3        -322.5070  -232.3125   462.1847 N3            1 RES     
   22645 C0        -323.2842  -231.7202   461.2652 C0            1 RES     
   22646 C0        -323.4151  -232.1195   459.8526 C0            1 RES     
   22647 C0        -322.5299  -233.2805   459.6226 C0            1 RES     
   22648 N3        -322.3733  -233.9296   458.4255 N3            1 RES     
   22649 S1        -321.2989  -235.1533   458.7770 S1            1 RES     
   22650 N3        -320.9579  -234.9342   460.3788 N3            1 RES     
   22651 C0        -321.7128  -233.8707   460.6855 C0            1 RES     
   22652 C0        -321.6957  -233.3845   461.9697 C0            1 RES     
   22653 H4        -323.8243  -230.8835   461.6492 H4            1 RES     
   22654 C5        -342.3186  -218.9883   449.3516 C5            1 RES     
   22655 C5        -341.2079  -219.9385   449.8828 C5            1 RES     
   22656 C5        -339.9250  -219.9730   448.9889 C5            1 RES     
   22657 C5        -338.5992  -220.6608   449.5784 C5            1 RES     
   22658 C5        -338.4724  -222.2402   449.7032 C5            1 RES     
   22659 C5        -337.2351  -222.9934   450.5271 C5            1 RES     
   22660 C5        -335.6686  -223.2038   450.0417 C5            1 RES     
   22661 C5        -334.4382  -224.2825   450.6762 C5            1 RES     
   22662 C5        -333.2799  -224.1599   451.9225 C5            1 RES     
   22663 C5        -332.0469  -225.1703   452.7609 C5            1 RES     
   22664 C5        -330.3447  -225.6628   452.5748 C5            1 RES     
   22665 C5        -330.2691  -225.5120   450.9485 C5            1 RES     
   22666 C5        -331.3031  -226.2757   450.0016 C5            1 RES     
   22667 C5        -331.4891  -225.6694   448.5434 C5            1 RES     
   22668 C5        -332.3669  -226.5213   447.5485 C5            1 RES     
   22669 C5        -331.9367  -228.0006   447.4403 C5            1 RES     
   22670 C5        -330.4420  -228.2029   447.0923 C5            1 RES     
   22671 C5        -330.1444  -228.8197   445.7206 C5            1 RES     
   22672 C5        -330.6524  -228.0099   444.5327 C5            1 RES     
   22673 C5        -328.8907  -226.5108   453.6082 C5            1 RES     
   22674 C0        -328.3256  -227.7572   455.0077 C0            1 RES     
   22675 C5        -329.4086  -228.8571   454.8643 C5            1 RES     
   22676 C5        -330.9118  -228.3550   454.6118 C5            1 RES     
   22677 C5        -331.6620  -228.0036   455.9081 C5            1 RES     
   22678 C5        -330.9620  -227.0475   456.9013 C5            1 RES     
   22679 C5        -330.4800  -225.7012   456.3183 C5            1 RES     
   22680 C5        -330.1113  -224.6521   457.3591 C5            1 RES     
   22681 C5        -329.0801  -225.1664   458.3642 C5            1 RES     
   22682 C5        -328.9278  -224.1866   459.5231 C5            1 RES     
   22683 C5        -328.1560  -224.8592   460.6502 C5            1 RES     
   22684 C5        -328.1347  -224.0351   461.9172 C5            1 RES     
   22685 C5        -331.7004  -229.3588   453.7033 C5            1 RES     
   22686 C5        -333.0098  -228.9451   452.9279 C5            1 RES     
   22687 C5        -334.3846  -228.7652   453.6275 C5            1 RES     
   22688 C5        -334.7797  -229.9921   454.4594 C5            1 RES     
   22689 C5        -336.2585  -229.9893   454.9084 C5            1 RES     
   22690 C5        -336.5193  -231.0186   456.0302 C5            1 RES     
   22691 C5        -336.1559  -232.4827   455.7052 C5            1 RES     
   22692 C5        -337.0209  -233.1545   454.6225 C5            1 RES     
   22693 C5        -338.5203  -233.2628   454.9638 C5            1 RES     
   22694 C5        -338.7983  -234.0675   456.2366 C5            1 RES     
   22695 H6        -341.9627  -217.9345   449.2906 H6            1 RES     
   22696 H6        -342.6944  -219.2872   448.3499 H6            1 RES     
   22697 H6        -343.1935  -218.9830   450.0452 H6            1 RES     
   22698 H6        -340.9415  -219.5560   450.8902 H6            1 RES     
   22699 H6        -341.6380  -220.9556   449.9826 H6            1 RES     
   22700 H6        -340.1944  -220.3619   447.9809 H6            1 RES     
   22701 H6        -339.6728  -218.8951   448.8453 H6            1 RES     
   22702 H6        -338.4486  -220.2056   450.5765 H6            1 RES     
   22703 H6        -337.7756  -220.3348   448.9119 H6            1 RES     
   22704 H6        -338.5963  -222.6689   448.6808 H6            1 RES     
   22705 H6        -339.4116  -222.5138   450.2410 H6            1 RES     
   22706 H6        -337.6352  -224.0293   450.5965 H6            1 RES     
   22707 H6        -337.2512  -222.5624   451.5430 H6            1 RES     
   22708 H6        -335.8684  -223.6033   449.0162 H6            1 RES     
   22709 H6        -335.2398  -222.1965   449.8621 H6            1 RES     
   22710 H6        -333.8379  -224.4043   449.7508 H6            1 RES     
   22711 H6        -335.0046  -225.2328   450.7797 H6            1 RES     
   22712 H6        -332.7798  -223.1940   451.7038 H6            1 RES     
   22713 H6        -333.9958  -223.9594   452.7454 H6            1 RES     
   22714 H6        -332.6182  -226.0761   452.9856 H6            1 RES     
   22715 H6        -331.9984  -224.6111   453.7046 H6            1 RES     
   22716 H6        -329.9038  -224.6565   452.7533 H6            1 RES     
   22717 H6        -329.2377  -225.5900   450.5499 H6            1 RES     
   22718 H6        -330.5548  -224.4465   450.7425 H6            1 RES     
   22719 H6        -332.3267  -226.2790   450.4257 H6            1 RES     
   22720 H6        -330.9539  -227.3177   449.9346 H6            1 RES     
   22721 H6        -330.5056  -225.4924   448.0770 H6            1 RES     
   22722 H6        -331.9537  -224.6566   448.5831 H6            1 RES     
   22723 H6        -332.3453  -226.0611   446.5310 H6            1 RES     
   22724 H6        -333.4346  -226.5101   447.8688 H6            1 RES     
   22725 H6        -332.1297  -228.4409   448.4382 H6            1 RES     
   22726 H6        -332.5921  -228.5820   446.7514 H6            1 RES     
   22727 H6        -329.8572  -227.2745   447.2008 H6            1 RES     
   22728 H6        -330.0257  -228.9099   447.8400 H6            1 RES     
   22729 H6        -330.5775  -229.8408   445.6746 H6            1 RES     
   22730 H6        -329.0383  -228.9077   445.6362 H6            1 RES     
   22731 H6        -330.2371  -226.9811   444.5458 H6            1 RES     
   22732 H6        -330.3252  -228.5139   443.5969 H6            1 RES     
   22733 H6        -331.7608  -227.9676   444.5337 H6            1 RES     
   22734 H6        -328.3737  -225.5955   453.9768 H6            1 RES     
   22735 H6        -328.2027  -226.7777   452.7783 H6            1 RES     
   22736 H6        -329.0541  -229.4193   453.9791 H6            1 RES     
   22737 H6        -329.3771  -229.5291   455.7443 H6            1 RES     
   22738 H6        -330.9444  -227.4638   454.0135 H6            1 RES     
   22739 H6        -332.6269  -227.5463   455.6261 H6            1 RES     
   22740 H6        -331.8727  -228.9414   456.4561 H6            1 RES     
   22741 H6        -331.7020  -226.8432   457.7029 H6            1 RES     
   22742 H6        -330.0994  -227.5840   457.3492 H6            1 RES     
   22743 H6        -329.5684  -225.8549   455.7752 H6            1 RES     
   22744 H6        -331.2449  -225.2708   455.6523 H6            1 RES     
   22745 H6        -329.7091  -223.7469   456.8475 H6            1 RES     
   22746 H6        -331.0463  -224.3769   457.8859 H6            1 RES     
   22747 H6        -329.4650  -226.1075   458.8001 H6            1 RES     
   22748 H6        -328.1014  -225.3772   457.8752 H6            1 RES     
   22749 H6        -328.4248  -223.2522   459.1895 H6            1 RES     
   22750 H6        -329.9410  -223.9427   459.9054 H6            1 RES     
   22751 H6        -327.1202  -225.0015   460.3140 H6            1 RES     
   22752 H6        -328.6356  -225.8368   460.8952 H6            1 RES     
   22753 H6        -327.6013  -223.0815   461.7347 H6            1 RES     
   22754 H6        -327.6062  -224.6129   462.7055 H6            1 RES     
   22755 H6        -329.1742  -223.8388   462.2533 H6            1 RES     
   22756 H6        -331.8501  -230.3153   454.2351 H6            1 RES     
   22757 H6        -331.0040  -229.5515   452.8560 H6            1 RES     
   22758 H6        -332.8184  -228.0594   452.2931 H6            1 RES     
   22759 H6        -333.1828  -229.7674   452.2000 H6            1 RES     
   22760 H6        -334.4264  -227.8495   454.2534 H6            1 RES     
   22761 H6        -335.1406  -228.6299   452.8163 H6            1 RES     
   22762 H6        -334.1149  -229.9985   455.3470 H6            1 RES     
   22763 H6        -334.6141  -230.9138   453.8622 H6            1 RES     
   22764 H6        -336.9265  -230.1727   454.0353 H6            1 RES     
   22765 H6        -336.5227  -228.9933   455.3261 H6            1 RES     
   22766 H6        -337.5780  -230.9563   456.3596 H6            1 RES     
   22767 H6        -335.8961  -230.7118   456.8977 H6            1 RES     
   22768 H6        -336.2315  -233.0760   456.6392 H6            1 RES     
   22769 H6        -335.0910  -232.5374   455.3988 H6            1 RES     
   22770 H6        -336.9081  -232.6034   453.6652 H6            1 RES     
   22771 H6        -336.6284  -234.1836   454.4638 H6            1 RES     
   22772 H6        -338.9686  -232.2529   455.0614 H6            1 RES     
   22773 H6        -339.0269  -233.7759   454.1176 H6            1 RES     
   22774 H6        -338.3744  -235.0908   456.1507 H6            1 RES     
   22775 H6        -338.3718  -233.5662   457.1295 H6            1 RES     
   22776 H6        -339.8948  -234.1501   456.3903 H6            1 RES     
   22777 C0        -317.8529  -233.3025   465.4628 C0            1 RES     
   22778 C0        -319.3555  -232.4036   466.0590 C0            1 RES     
   22779 C0        -320.3900  -233.3172   466.2162 C0            1 RES     
   22780 S1        -321.9547  -232.6501   466.4581 S1            1 RES     
   22781 C0        -321.6754  -231.0146   466.4092 C0            1 RES     
   22782 C0        -320.1333  -231.0142   466.2053 C0            1 RES     
   22783 C0        -320.0979  -234.6012   465.5778 C0            1 RES     
   22784 C0        -318.9745  -234.0704   464.7021 C0            1 RES     
   22785 C0        -319.4338  -233.7292   463.4674 C0            1 RES     
   22786 C0        -320.7541  -234.0835   463.2006 C0            1 RES     
   22787 S1        -321.5365  -234.9942   464.5040 S1            1 RES     
   22788 H2        -319.6704  -230.0493   466.0371 H2            1 RES     
   22789 H2        -318.9151  -233.0549   462.8058 H2            1 RES     
   22790 N3        -325.5810  -230.1792   466.3696 N3            1 RES     
   22791 C0        -324.3679  -230.7484   466.3020 C0            1 RES     
   22792 C0        -323.0776  -230.0691   466.5164 C0            1 RES     
   22793 C0        -323.3536  -228.6466   466.8070 C0            1 RES     
   22794 N3        -322.4017  -227.6918   467.0543 N3            1 RES     
   22795 S1        -323.2907  -226.3128   467.3431 S1            1 RES     
   22796 N3        -324.8571  -226.8037   467.1551 N3            1 RES     
   22797 C0        -324.7129  -228.1037   466.8650 C0            1 RES     
   22798 C0        -325.8313  -228.8688   466.6414 C0            1 RES     
   22799 H4        -324.4052  -231.7866   466.0570 H4            1 RES     
   22800 C5        -304.7078  -247.4468   467.2955 C5            1 RES     
   22801 C5        -305.7346  -246.2816   467.3751 C5            1 RES     
   22802 C5        -305.3710  -245.0561   466.4740 C5            1 RES     
   22803 C5        -306.4889  -243.9308   466.2240 C5            1 RES     
   22804 C5        -306.8851  -242.8920   467.3598 C5            1 RES     
   22805 C5        -308.1976  -241.8716   467.2447 C5            1 RES     
   22806 C5        -308.3379  -240.4905   466.3466 C5            1 RES     
   22807 C5        -309.5218  -239.2000   466.4603 C5            1 RES     
   22808 C5        -311.0651  -238.9413   465.7810 C5            1 RES     
   22809 C5        -312.4280  -237.7668   465.8661 C5            1 RES     
   22810 C5        -312.9348  -236.2241   465.1327 C5            1 RES     
   22811 C5        -311.4385  -235.6730   464.7707 C5            1 RES     
   22812 C5        -310.3115  -235.5512   465.8949 C5            1 RES     
   22813 C5        -308.8094  -235.5282   465.3740 C5            1 RES     
   22814 C5        -307.7067  -235.2263   466.4598 C5            1 RES     
   22815 C5        -307.9808  -233.9581   467.2975 C5            1 RES     
   22816 C5        -308.2211  -232.6814   466.4559 C5            1 RES     
   22817 C5        -307.1535  -231.5868   466.5674 C5            1 RES     
   22818 C5        -305.7558  -232.0114   466.1300 C5            1 RES     
   22819 C5        -314.5318  -235.0723   464.9771 C5            1 RES     
   22820 C0        -316.2102  -234.4103   465.7362 C0            1 RES     
   22821 C5        -315.8573  -234.4032   467.2457 C5            1 RES     
   22822 C5        -315.0151  -235.6556   467.7913 C5            1 RES     
   22823 C5        -315.8921  -236.8643   468.1608 C5            1 RES     
   22824 C5        -316.9144  -237.3530   467.1089 C5            1 RES     
   22825 C5        -316.3465  -237.6609   465.7062 C5            1 RES     
   22826 C5        -317.2811  -238.4522   464.8006 C5            1 RES     
   22827 C5        -318.6518  -237.7899   464.6573 C5            1 RES     
   22828 C5        -319.6289  -238.7285   463.9568 C5            1 RES     
   22829 C5        -321.0437  -238.1881   464.1142 C5            1 RES     
   22830 C5        -322.0971  -239.1574   463.6289 C5            1 RES     
   22831 C5        -314.0466  -235.2284   468.9463 C5            1 RES     
   22832 C5        -312.8040  -236.1012   469.3716 C5            1 RES     
   22833 C5        -312.9340  -237.4104   470.1969 C5            1 RES     
   22834 C5        -313.7445  -237.2095   471.4838 C5            1 RES     
   22835 C5        -313.6328  -238.3862   472.4794 C5            1 RES     
   22836 C5        -314.7290  -238.3243   473.5659 C5            1 RES     
   22837 C5        -314.7772  -237.0322   474.4080 C5            1 RES     
   22838 C5        -313.5711  -236.8032   475.3380 C5            1 RES     
   22839 C5        -313.3693  -237.8844   476.4181 C5            1 RES     
   22840 C5        -314.5652  -238.0314   477.3632 C5            1 RES     
   22841 H6        -304.6205  -247.8470   466.2595 H6            1 RES     
   22842 H6        -303.6946  -247.1486   467.6399 H6            1 RES     
   22843 H6        -305.0360  -248.3018   467.9341 H6            1 RES     
   22844 H6        -306.7016  -246.7094   467.0376 H6            1 RES     
   22845 H6        -305.8259  -245.9695   468.4351 H6            1 RES     
   22846 H6        -304.4033  -244.6259   466.8182 H6            1 RES     
   22847 H6        -305.1670  -245.5121   465.4758 H6            1 RES     
   22848 H6        -307.3953  -244.4803   465.9039 H6            1 RES     
   22849 H6        -306.1179  -243.3301   465.3694 H6            1 RES     
   22850 H6        -305.9618  -242.3320   467.6397 H6            1 RES     
   22851 H6        -307.0884  -243.5577   468.2325 H6            1 RES     
   22852 H6        -308.2743  -241.5161   468.2962 H6            1 RES     
   22853 H6        -309.0648  -242.5263   467.0514 H6            1 RES     
   22854 H6        -307.3804  -239.9997   466.6523 H6            1 RES     
   22855 H6        -308.1740  -240.7681   465.2851 H6            1 RES     
   22856 H6        -308.8996  -238.3743   466.0569 H6            1 RES     
   22857 H6        -309.5581  -239.0245   467.5569 H6            1 RES     
   22858 H6        -310.8967  -239.1297   464.7007 H6            1 RES     
   22859 H6        -311.5400  -239.8582   466.1856 H6            1 RES     
   22860 H6        -312.5676  -237.6671   466.9468 H6            1 RES     
   22861 H6        -313.2324  -238.4319   465.5253 H6            1 RES     
   22862 H6        -313.1058  -236.6237   464.1080 H6            1 RES     
   22863 H6        -311.4490  -234.7731   464.1237 H6            1 RES     
   22864 H6        -310.9877  -236.4662   464.1172 H6            1 RES     
   22865 H6        -310.3395  -236.4038   466.6020 H6            1 RES     
   22866 H6        -310.5295  -234.6297   466.4567 H6            1 RES     
   22867 H6        -308.7021  -234.7972   464.5552 H6            1 RES     
   22868 H6        -308.5295  -236.5001   464.9047 H6            1 RES     
   22869 H6        -306.7067  -235.1302   465.9715 H6            1 RES     
   22870 H6        -307.6211  -236.0802   467.1712 H6            1 RES     
   22871 H6        -308.8988  -234.1767   467.8776 H6            1 RES     
   22872 H6        -307.1992  -233.7870   468.0733 H6            1 RES     
   22873 H6        -308.3904  -232.9078   465.3901 H6            1 RES     
   22874 H6        -309.1647  -232.2236   466.8197 H6            1 RES     
   22875 H6        -307.1097  -231.2209   467.6146 H6            1 RES     
   22876 H6        -307.4819  -230.7443   465.9188 H6            1 RES     
   22877 H6        -305.7618  -232.3822   465.0842 H6            1 RES     
   22878 H6        -305.0840  -231.1272   466.1902 H6            1 RES     
   22879 H6        -305.3565  -232.7960   466.8046 H6            1 RES     
   22880 H6        -314.9188  -235.4319   463.9964 H6            1 RES     
   22881 H6        -314.0504  -234.1300   464.6399 H6            1 RES     
   22882 H6        -315.2506  -233.4821   467.3389 H6            1 RES     
   22883 H6        -316.7810  -234.2788   467.8444 H6            1 RES     
   22884 H6        -314.3183  -236.0221   467.0609 H6            1 RES     
   22885 H6        -315.2206  -237.7096   468.3937 H6            1 RES     
   22886 H6        -316.4629  -236.6163   469.0755 H6            1 RES     
   22887 H6        -317.3605  -238.2810   467.5234 H6            1 RES     
   22888 H6        -317.7144  -236.5882   467.0218 H6            1 RES     
   22889 H6        -316.1924  -236.7421   465.1755 H6            1 RES     
   22890 H6        -315.3958  -238.2121   465.7850 H6            1 RES     
   22891 H6        -316.8167  -238.5621   463.7930 H6            1 RES     
   22892 H6        -317.3938  -239.4577   465.2518 H6            1 RES     
   22893 H6        -319.0579  -237.6178   465.6718 H6            1 RES     
   22894 H6        -318.5800  -236.8090   464.1338 H6            1 RES     
   22895 H6        -319.3602  -238.8530   462.8844 H6            1 RES     
   22896 H6        -319.5850  -239.7149   464.4639 H6            1 RES     
   22897 H6        -321.1228  -237.2673   463.5209 H6            1 RES     
   22898 H6        -321.2453  -237.9878   465.1935 H6            1 RES     
   22899 H6        -321.9757  -239.3285   462.5411 H6            1 RES     
   22900 H6        -323.0986  -238.7193   463.8279 H6            1 RES     
   22901 H6        -322.0084  -240.1149   464.1834 H6            1 RES     
   22902 H6        -314.6270  -234.9208   469.8344 H6            1 RES     
   22903 H6        -313.5411  -234.3207   468.5452 H6            1 RES     
   22904 H6        -312.1539  -236.2979   468.4982 H6            1 RES     
   22905 H6        -312.1937  -235.4338   470.0183 H6            1 RES     
   22906 H6        -313.3598  -238.2462   469.6036 H6            1 RES     
   22907 H6        -311.8966  -237.7160   470.4767 H6            1 RES     
   22908 H6        -314.8007  -237.0755   471.1734 H6            1 RES     
   22909 H6        -313.3901  -236.2956   472.0062 H6            1 RES     
   22910 H6        -312.6172  -238.4077   472.9380 H6            1 RES     
   22911 H6        -313.7755  -239.3487   471.9414 H6            1 RES     
   22912 H6        -314.6474  -239.2078   474.2338 H6            1 RES     
   22913 H6        -315.7051  -238.4094   473.0414 H6            1 RES     
   22914 H6        -315.7007  -237.0505   475.0218 H6            1 RES     
   22915 H6        -314.8811  -236.1577   473.7332 H6            1 RES     
   22916 H6        -312.6455  -236.7242   474.7299 H6            1 RES     
   22917 H6        -313.7180  -235.8268   475.8511 H6            1 RES     
   22918 H6        -313.1492  -238.8645   475.9477 H6            1 RES     
   22919 H6        -312.4852  -237.5972   477.0278 H6            1 RES     
   22920 H6        -314.7896  -237.0638   477.8608 H6            1 RES     
   22921 H6        -315.4657  -238.3830   476.8193 H6            1 RES     
   22922 H6        -314.3296  -238.7849   478.1440 H6            1 RES     
   22923 C0        -330.4077  -227.5710   464.5565 C0            1 RES     
   22924 C0        -330.2894  -229.3839   464.9037 C0            1 RES     
   22925 C0        -330.2034  -229.5714   466.2775 C0            1 RES     
   22926 S1        -329.7708  -231.1508   466.7972 S1            1 RES     
   22927 C0        -329.5805  -231.9752   465.3691 C0            1 RES     
   22928 C0        -329.9404  -230.8468   464.3607 C0            1 RES     
   22929 C0        -329.9100  -228.3271   466.9897 C0            1 RES     
   22930 C0        -329.4220  -227.5745   465.7626 C0            1 RES     
   22931 C0        -328.0685  -227.6525   465.6448 C0            1 RES     
   22932 C0        -327.4060  -228.2336   466.7234 C0            1 RES     
   22933 S1        -328.4667  -228.6696   468.0744 S1            1 RES     
   22934 H2        -329.8055  -231.0785   463.3110 H2            1 RES     
   22935 H2        -327.5416  -227.4821   464.7202 H2            1 RES     
   22936 N3        -328.0311  -235.1582   467.2189 N3            1 RES     
   22937 C0        -328.4849  -233.9446   466.8701 C0            1 RES     
   22938 C0        -329.0398  -233.5702   465.5571 C0            1 RES     
   22939 C0        -328.9972  -234.7637   464.6866 C0            1 RES     
   22940 N3        -329.4210  -234.8067   463.3837 N3            1 RES     
   22941 S1        -329.1655  -236.3911   462.9369 S1            1 RES     
   22942 N3        -328.5087  -237.0829   464.2860 N3            1 RES     
   22943 C0        -328.4865  -236.0570   465.1474 C0            1 RES     
   22944 C0        -327.9971  -236.2564   466.4150 C0            1 RES     
   22945 H4        -328.4008  -233.2247   467.6537 H4            1 RES     
   22946 C5        -338.8843  -210.3202   467.1586 C5            1 RES     
   22947 C5        -338.4187  -211.7873   466.9367 C5            1 RES     
   22948 C5        -337.5334  -211.9835   465.6624 C5            1 RES     
   22949 C5        -336.7372  -213.3671   465.4886 C5            1 RES     
   22950 C5        -337.4891  -214.7095   465.0900 C5            1 RES     
   22951 C5        -336.7640  -216.2092   465.1367 C5            1 RES     
   22952 C5        -335.6791  -216.8493   464.0657 C5            1 RES     
   22953 C5        -335.1703  -218.5154   463.8528 C5            1 RES     
   22954 C5        -333.9564  -219.4854   464.5569 C5            1 RES     
   22955 C5        -333.3750  -221.1900   464.5428 C5            1 RES     
   22956 C5        -332.2877  -222.2429   463.6028 C5            1 RES     
   22957 C5        -332.4031  -221.4359   462.1854 C5            1 RES     
   22958 C5        -333.8227  -221.1536   461.5117 C5            1 RES     
   22959 C5        -333.8724  -219.9509   460.4728 C5            1 RES     
   22960 C5        -335.2211  -219.7849   459.6730 C5            1 RES     
   22961 C5        -335.7071  -221.0797   458.9857 C5            1 RES     
   22962 C5        -334.6543  -221.7428   458.0648 C5            1 RES     
   22963 C5        -334.9731  -221.7453   456.5652 C5            1 RES     
   22964 C5        -335.1296  -220.3619   455.9435 C5            1 RES     
   22965 C5        -331.4044  -224.0052   463.7258 C5            1 RES     
   22966 C0        -331.4093  -225.8483   464.3852 C0            1 RES     
   22967 C5        -332.9265  -226.1634   464.3396 C5            1 RES     
   22968 C5        -333.9164  -224.9960   464.8220 C5            1 RES     
   22969 C5        -334.1263  -224.9669   466.3457 C5            1 RES     
   22970 C5        -332.8655  -224.9724   467.2405 C5            1 RES     
   22971 C5        -331.8190  -223.8769   466.9410 C5            1 RES     
   22972 C5        -330.7695  -223.6847   468.0279 C5            1 RES     
   22973 C5        -330.0512  -224.9877   468.3805 C5            1 RES     
   22974 C5        -329.1978  -224.8065   469.6316 C5            1 RES     
   22975 C5        -328.7595  -226.1725   470.1418 C5            1 RES     
   22976 C5        -328.0822  -226.1027   471.4913 C5            1 RES     
   22977 C5        -335.2625  -225.0262   464.0209 C5            1 RES     
   22978 C5        -336.2270  -223.7809   463.9446 C5            1 RES     
   22979 C5        -337.1379  -223.3444   465.1243 C5            1 RES     
   22980 C5        -338.0073  -224.4959   465.6457 C5            1 RES     
   22981 C5        -339.1414  -224.0401   466.5914 C5            1 RES     
   22982 C5        -339.7451  -225.2257   467.3762 C5            1 RES     
   22983 C5        -340.3119  -226.3828   466.5271 C5            1 RES     
   22984 C5        -341.5644  -226.0431   465.6978 C5            1 RES     
   22985 C5        -342.7943  -225.6170   466.5237 C5            1 RES     
   22986 C5        -343.2633  -226.6871   467.5136 C5            1 RES     
   22987 H6        -338.0193  -209.6290   467.2805 H6            1 RES     
   22988 H6        -339.5176  -209.9420   466.3280 H6            1 RES     
   22989 H6        -339.4847  -210.2379   468.0963 H6            1 RES     
   22990 H6        -337.8275  -212.0546   467.8373 H6            1 RES     
   22991 H6        -339.3177  -212.4345   466.8871 H6            1 RES     
   22992 H6        -338.1306  -211.7197   464.7604 H6            1 RES     
   22993 H6        -336.7530  -211.1910   465.7571 H6            1 RES     
   22994 H6        -336.2018  -213.5225   466.4453 H6            1 RES     
   22995 H6        -335.9908  -213.1807   464.6906 H6            1 RES     
   22996 H6        -337.9919  -214.5345   464.1097 H6            1 RES     
   22997 H6        -338.3216  -214.7470   465.8328 H6            1 RES     
   22998 H6        -337.6538  -216.8706   465.0438 H6            1 RES     
   22999 H6        -336.3753  -216.3177   466.1639 H6            1 RES     
   23000 H6        -336.2281  -216.6166   463.1193 H6            1 RES     
   23001 H6        -334.7993  -216.1738   464.0424 H6            1 RES     
   23002 H6        -334.8959  -218.4642   462.7787 H6            1 RES     
   23003 H6        -336.1430  -219.0519   463.8767 H6            1 RES     
   23004 H6        -333.0476  -218.8562   464.4606 H6            1 RES     
   23005 H6        -334.2980  -219.3786   465.6066 H6            1 RES     
   23006 H6        -334.3077  -221.7435   464.6883 H6            1 RES     
   23007 H6        -332.8741  -221.1951   465.5199 H6            1 RES     
   23008 H6        -331.3411  -221.7327   463.8903 H6            1 RES     
   23009 H6        -331.6678  -221.7751   461.4283 H6            1 RES     
   23010 H6        -332.0789  -220.3878   462.4213 H6            1 RES     
   23011 H6        -334.5926  -220.8926   462.2646 H6            1 RES     
   23012 H6        -334.1259  -222.0902   461.0186 H6            1 RES     
   23013 H6        -333.0459  -220.0400   459.7482 H6            1 RES     
   23014 H6        -333.6842  -218.9740   460.9762 H6            1 RES     
   23015 H6        -335.1116  -218.9835   458.9026 H6            1 RES     
   23016 H6        -336.0356  -219.4470   460.3550 H6            1 RES     
   23017 H6        -335.9487  -221.7811   459.8082 H6            1 RES     
   23018 H6        -336.6751  -220.9372   458.4521 H6            1 RES     
   23019 H6        -333.6446  -221.3258   458.2145 H6            1 RES     
   23020 H6        -334.5863  -222.8100   458.3627 H6            1 RES     
   23021 H6        -335.9002  -222.3295   456.3872 H6            1 RES     
   23022 H6        -334.1320  -222.2649   456.0544 H6            1 RES     
   23023 H6        -334.2181  -219.7493   456.1014 H6            1 RES     
   23024 H6        -335.2918  -220.4833   454.8500 H6            1 RES     
   23025 H6        -336.0113  -219.8399   456.3683 H6            1 RES     
   23026 H6        -330.4157  -223.6841   464.1261 H6            1 RES     
   23027 H6        -331.1235  -224.1482   462.6609 H6            1 RES     
   23028 H6        -333.0905  -226.3647   463.2636 H6            1 RES     
   23029 H6        -333.1321  -227.0922   464.9072 H6            1 RES     
   23030 H6        -333.5449  -224.0212   464.5672 H6            1 RES     
   23031 H6        -334.7062  -224.0591   466.5891 H6            1 RES     
   23032 H6        -334.7304  -225.8483   466.6329 H6            1 RES     
   23033 H6        -333.2281  -224.8426   468.2814 H6            1 RES     
   23034 H6        -332.3865  -225.9706   467.1581 H6            1 RES     
   23035 H6        -331.2468  -224.1580   466.0790 H6            1 RES     
   23036 H6        -332.3120  -222.9076   466.7638 H6            1 RES     
   23037 H6        -330.0213  -222.9295   467.6921 H6            1 RES     
   23038 H6        -331.2961  -223.2914   468.9198 H6            1 RES     
   23039 H6        -330.8172  -225.7449   468.6327 H6            1 RES     
   23040 H6        -329.4471  -225.3669   467.5245 H6            1 RES     
   23041 H6        -328.3225  -224.1520   469.4238 H6            1 RES     
   23042 H6        -329.8288  -224.3387   470.4160 H6            1 RES     
   23043 H6        -328.0464  -226.5913   469.4193 H6            1 RES     
   23044 H6        -329.6538  -226.8314   470.2502 H6            1 RES     
   23045 H6        -327.1472  -225.5140   471.4110 H6            1 RES     
   23046 H6        -327.8444  -227.1368   471.8210 H6            1 RES     
   23047 H6        -328.7685  -225.6399   472.2309 H6            1 RES     
   23048 H6        -335.8297  -225.9419   464.2657 H6            1 RES     
   23049 H6        -334.9365  -225.1074   462.9592 H6            1 RES     
   23050 H6        -335.6816  -222.8930   463.5728 H6            1 RES     
   23051 H6        -336.9408  -224.0218   463.1271 H6            1 RES     
   23052 H6        -336.5641  -222.8905   465.9590 H6            1 RES     
   23053 H6        -337.8104  -222.5445   464.7296 H6            1 RES     
   23054 H6        -337.3255  -225.1889   466.1792 H6            1 RES     
   23055 H6        -338.4786  -225.0219   464.7886 H6            1 RES     
   23056 H6        -339.9287  -223.4999   466.0163 H6            1 RES     
   23057 H6        -338.7382  -223.3329   467.3486 H6            1 RES     
   23058 H6        -340.5224  -224.8560   468.0778 H6            1 RES     
   23059 H6        -338.9270  -225.6474   467.9990 H6            1 RES     
   23060 H6        -340.5527  -227.2269   467.2049 H6            1 RES     
   23061 H6        -339.5217  -226.7596   465.8456 H6            1 RES     
   23062 H6        -341.3204  -225.2380   464.9732 H6            1 RES     
   23063 H6        -341.8397  -226.9480   465.1115 H6            1 RES     
   23064 H6        -342.5850  -224.6753   467.0713 H6            1 RES     
   23065 H6        -343.6282  -225.4171   465.8161 H6            1 RES     
   23066 H6        -343.4981  -227.6337   466.9815 H6            1 RES     
   23067 H6        -342.4939  -226.8816   468.2886 H6            1 RES     
   23068 H6        -344.1800  -226.3355   468.0321 H6            1 RES     
   23069 C0        -324.2529  -239.4422   468.0904 C0            1 RES     
   23070 C0        -324.8863  -238.3430   469.4365 C0            1 RES     
   23071 C0        -326.2124  -238.6680   469.6923 C0            1 RES     
   23072 S1        -327.0818  -237.5645   470.6815 S1            1 RES     
   23073 C0        -325.9550  -236.3915   471.0125 C0            1 RES     
   23074 C0        -324.7280  -236.9817   470.2602 C0            1 RES     
   23075 C0        -326.7880  -239.5139   468.6460 C0            1 RES     
   23076 C0        -325.7167  -239.2072   467.6122 C0            1 RES     
   23077 C0        -326.1007  -238.1897   466.7942 C0            1 RES     
   23078 C0        -327.4182  -237.7641   466.9458 C0            1 RES     
   23079 S1        -328.3529  -238.7076   468.1191 S1            1 RES     
   23080 H2        -323.8420  -236.3593   470.2220 H2            1 RES     
   23081 H2        -325.4094  -237.5992   466.2156 H2            1 RES     
   23082 N3        -328.6881  -233.9979   472.6720 N3            1 RES     
   23083 C0        -328.0236  -234.9473   471.9956 C0            1 RES     
   23084 C0        -326.5590  -235.0830   471.9039 C0            1 RES     
   23085 C0        -325.9492  -233.9816   472.6781 C0            1 RES     
   23086 N3        -324.6029  -233.7678   472.8215 N3            1 RES     
   23087 S1        -324.5183  -232.4288   473.8091 S1            1 RES     
   23088 N3        -326.0999  -232.0360   474.0816 N3            1 RES     
   23089 C0        -326.7492  -232.9839   473.3925 C0            1 RES     
   23090 C0        -328.1225  -232.9869   473.3873 C0            1 RES     
   23091 H4        -328.6689  -235.6310   471.4902 H4            1 RES     
   23092 C5        -321.0632  -257.0858   460.6918 C5            1 RES     
   23093 C5        -321.2432  -255.7596   461.4837 C5            1 RES     
   23094 C5        -320.4114  -254.5646   460.9125 C5            1 RES     
   23095 C5        -320.7408  -253.0828   461.4361 C5            1 RES     
   23096 C5        -320.3064  -252.6029   462.8877 C5            1 RES     
   23097 C5        -320.8313  -251.1769   463.5718 C5            1 RES     
   23098 C5        -320.3244  -249.6394   463.2360 C5            1 RES     
   23099 C5        -320.5577  -248.1612   464.1528 C5            1 RES     
   23100 C5        -321.7837  -246.9761   464.2029 C5            1 RES     
   23101 C5        -322.2321  -245.4967   465.1270 C5            1 RES     
   23102 C5        -321.9086  -243.7445   465.1197 C5            1 RES     
   23103 C5        -320.4391  -243.8150   464.4060 C5            1 RES     
   23104 C5        -319.2708  -244.7175   465.0139 C5            1 RES     
   23105 C5        -318.1148  -245.1315   464.0036 C5            1 RES     
   23106 C5        -316.8727  -245.8658   464.6394 C5            1 RES     
   23107 C5        -316.2593  -245.1287   465.8500 C5            1 RES     
   23108 C5        -315.8829  -243.6535   465.5704 C5            1 RES     
   23109 C5        -314.3863  -243.3215   465.5921 C5            1 RES     
   23110 C5        -313.5503  -244.0752   464.5635 C5            1 RES     
   23111 C5        -322.5994  -242.0724   465.9120 C5            1 RES     
   23112 C0        -323.4815  -241.1526   467.3977 C0            1 RES     
   23113 C5        -322.9473  -241.9738   468.5991 C5            1 RES     
   23114 C5        -322.8662  -243.5643   468.4013 C5            1 RES     
   23115 C5        -324.1931  -244.2833   468.6995 C5            1 RES     
   23116 C5        -325.4676  -243.7451   468.0093 C5            1 RES     
   23117 C5        -325.3994  -243.6124   466.4722 C5            1 RES     
   23118 C5        -326.7466  -243.4139   465.7899 C5            1 RES     
   23119 C5        -327.5220  -242.2286   466.3661 C5            1 RES     
   23120 C5        -328.9525  -242.2172   465.8374 C5            1 RES     
   23121 C5        -329.7833  -241.2412   466.6594 C5            1 RES     
   23122 C5        -331.2587  -241.3157   466.3396 C5            1 RES     
   23123 C5        -321.6531  -244.1725   469.1845 C5            1 RES     
   23124 C5        -321.0538  -245.5906   468.8428 C5            1 RES     
   23125 C5        -321.7533  -246.9203   469.2360 C5            1 RES     
   23126 C5        -322.0976  -246.9777   470.7299 C5            1 RES     
   23127 C5        -322.4989  -248.3866   471.2220 C5            1 RES     
   23128 C5        -323.1857  -248.3371   472.6047 C5            1 RES     
   23129 C5        -322.3737  -247.6832   473.7423 C5            1 RES     
   23130 C5        -321.1126  -248.4507   474.1810 C5            1 RES     
   23131 C5        -321.3739  -249.8625   474.7421 C5            1 RES     
   23132 C5        -322.2805  -249.8689   475.9761 C5            1 RES     
   23133 H6        -321.3798  -256.9758   459.6294 H6            1 RES     
   23134 H6        -320.0152  -257.4540   460.7062 H6            1 RES     
   23135 H6        -321.7027  -257.8911   461.1267 H6            1 RES     
   23136 H6        -322.3242  -255.5159   461.4203 H6            1 RES     
   23137 H6        -320.9747  -255.9472   462.5430 H6            1 RES     
   23138 H6        -319.3274  -254.8097   460.9823 H6            1 RES     
   23139 H6        -320.6577  -254.5665   459.8238 H6            1 RES     
   23140 H6        -321.8370  -252.9685   461.3300 H6            1 RES     
   23141 H6        -320.2419  -252.3986   460.7207 H6            1 RES     
   23142 H6        -319.1970  -252.6987   462.9552 H6            1 RES     
   23143 H6        -320.7015  -253.4199   463.5379 H6            1 RES     
   23144 H6        -320.5282  -251.3333   464.6309 H6            1 RES     
   23145 H6        -321.9334  -251.2183   463.5323 H6            1 RES     
   23146 H6        -319.2212  -249.8157   463.2932 H6            1 RES     
   23147 H6        -320.5146  -249.4563   462.1584 H6            1 RES     
   23148 H6        -319.6565  -247.6133   463.8075 H6            1 RES     
   23149 H6        -320.3142  -248.4959   465.1840 H6            1 RES     
   23150 H6        -321.9239  -246.7172   463.1331 H6            1 RES     
   23151 H6        -322.6149  -247.6608   464.4679 H6            1 RES     
   23152 H6        -322.1176  -245.8376   466.1605 H6            1 RES     
   23153 H6        -323.3124  -245.5083   464.9311 H6            1 RES     
   23154 H6        -322.4340  -243.5250   464.1632 H6            1 RES     
   23155 H6        -320.0526  -242.8215   464.1025 H6            1 RES     
   23156 H6        -320.6154  -244.3418   463.4309 H6            1 RES     
   23157 H6        -319.6529  -245.6838   465.3983 H6            1 RES     
   23158 H6        -318.8480  -244.1527   465.8592 H6            1 RES     
   23159 H6        -317.7533  -244.2452   463.4558 H6            1 RES     
   23160 H6        -318.5002  -245.8040   463.2022 H6            1 RES     
   23161 H6        -316.0811  -246.0155   463.8657 H6            1 RES     
   23162 H6        -317.1620  -246.8853   464.9851 H6            1 RES     
   23163 H6        -317.0372  -245.1514   466.6382 H6            1 RES     
   23164 H6        -315.4017  -245.6853   466.2934 H6            1 RES     
   23165 H6        -316.3175  -243.2815   464.6279 H6            1 RES     
   23166 H6        -316.3414  -243.0416   466.3753 H6            1 RES     
   23167 H6        -313.9799  -243.5211   466.6057 H6            1 RES     
   23168 H6        -314.2916  -242.2316   465.3886 H6            1 RES     
   23169 H6        -313.9284  -243.8968   463.5357 H6            1 RES     
   23170 H6        -312.5018  -243.7096   464.6254 H6            1 RES     
   23171 H6        -313.5509  -245.1630   464.7806 H6            1 RES     
   23172 H6        -323.2721  -241.7458   465.0864 H6            1 RES     
   23173 H6        -321.7380  -241.4008   465.7114 H6            1 RES     
   23174 H6        -321.9263  -241.5653   468.7251 H6            1 RES     
   23175 H6        -323.5367  -241.7351   469.5061 H6            1 RES     
   23176 H6        -322.6173  -243.8331   467.3918 H6            1 RES     
   23177 H6        -324.0759  -245.3421   468.4084 H6            1 RES     
   23178 H6        -324.3751  -244.2444   469.7901 H6            1 RES     
   23179 H6        -326.2798  -244.4555   468.2691 H6            1 RES     
   23180 H6        -325.7110  -242.7570   468.4531 H6            1 RES     
   23181 H6        -324.8494  -242.7286   466.2157 H6            1 RES     
   23182 H6        -324.9159  -244.4969   466.0276 H6            1 RES     
   23183 H6        -326.5898  -243.2568   464.6974 H6            1 RES     
   23184 H6        -327.3236  -244.3483   465.9356 H6            1 RES     
   23185 H6        -327.5956  -242.3660   467.4614 H6            1 RES     
   23186 H6        -327.0035  -241.2632   466.1647 H6            1 RES     
   23187 H6        -328.9741  -241.9564   464.7561 H6            1 RES     
   23188 H6        -329.3822  -243.2308   465.9798 H6            1 RES     
   23189 H6        -329.4327  -240.2249   466.4349 H6            1 RES     
   23190 H6        -329.6639  -241.4758   467.7440 H6            1 RES     
   23191 H6        -331.4289  -241.0191   465.2859 H6            1 RES     
   23192 H6        -331.8020  -240.6204   467.0149 H6            1 RES     
   23193 H6        -331.6281  -242.3475   466.5156 H6            1 RES     
   23194 H6        -321.8142  -244.0711   470.2726 H6            1 RES     
   23195 H6        -320.8014  -243.5101   468.9084 H6            1 RES     
   23196 H6        -320.7719  -245.6428   467.7742 H6            1 RES     
   23197 H6        -320.0818  -245.6274   469.3811 H6            1 RES     
   23198 H6        -322.6595  -247.1200   468.6270 H6            1 RES     
   23199 H6        -321.0306  -247.7410   469.0080 H6            1 RES     
   23200 H6        -322.9357  -246.2689   470.8876 H6            1 RES     
   23201 H6        -321.2178  -246.6542   471.3256 H6            1 RES     
   23202 H6        -321.6078  -249.0558   471.2427 H6            1 RES     
   23203 H6        -323.2352  -248.8346   470.5196 H6            1 RES     
   23204 H6        -323.5016  -249.3585   472.9049 H6            1 RES     
   23205 H6        -324.1141  -247.7392   472.4800 H6            1 RES     
   23206 H6        -323.0397  -247.5623   474.6208 H6            1 RES     
   23207 H6        -322.0821  -246.6558   473.4417 H6            1 RES     
   23208 H6        -320.4104  -248.5276   473.3244 H6            1 RES     
   23209 H6        -320.6091  -247.8529   474.9730 H6            1 RES     
   23210 H6        -321.8128  -250.5145   473.9594 H6            1 RES     
   23211 H6        -320.3948  -250.3001   475.0350 H6            1 RES     
   23212 H6        -321.8476  -249.2369   476.7807 H6            1 RES     
   23213 H6        -323.2981  -249.5035   475.7284 H6            1 RES     
   23214 H6        -322.3806  -250.9072   476.3566 H6            1 RES     
   23215 C0        -331.4752  -229.0276   473.6284 C0            1 RES     
   23216 C0        -332.3279  -230.6471   473.3609 C0            1 RES     
   23217 C0        -332.1412  -231.4417   474.4848 C0            1 RES     
   23218 S1        -332.5800  -233.0947   474.3208 S1            1 RES     
   23219 C0        -333.1106  -233.1865   472.7507 C0            1 RES     
   23220 C0        -332.9407  -231.7000   472.3253 C0            1 RES     
   23221 C0        -331.0976  -230.9181   475.3672 C0            1 RES     
   23222 C0        -330.4787  -230.0017   474.3243 C0            1 RES     
   23223 C0        -329.4354  -230.6079   473.6952 C0            1 RES     
   23224 C0        -329.0434  -231.8328   474.2300 C0            1 RES     
   23225 S1        -329.9348  -232.3045   475.6871 S1            1 RES     
   23226 H2        -333.1273  -231.4736   471.2823 H2            1 RES     
   23227 H2        -329.0589  -230.2969   472.7344 H2            1 RES     
   23228 N3        -333.3127  -237.1736   472.8756 N3            1 RES     
   23229 C0        -333.0666  -235.8724   473.0914 C0            1 RES     
   23230 C0        -333.5228  -234.7520   472.2495 C0            1 RES     
   23231 C0        -334.2893  -235.3141   471.1178 C0            1 RES     
   23232 N3        -334.8682  -234.5813   470.1144 N3            1 RES     
   23233 S1        -335.6093  -235.7304   469.1628 S1            1 RES     
   23234 N3        -335.2400  -237.1593   469.9058 N3            1 RES     
   23235 C0        -334.5151  -236.7523   470.9564 C0            1 RES     
   23236 C0        -334.0227  -237.6873   471.8336 C0            1 RES     
   23237 H4        -332.4732  -235.6967   473.9610 H4            1 RES     
   23238 C5        -328.4190  -212.9957   484.1096 C5            1 RES     
   23239 C5        -328.8876  -214.2462   483.3125 C5            1 RES     
   23240 C5        -328.4776  -214.2238   481.8034 C5            1 RES     
   23241 C5        -328.6222  -215.5765   480.9503 C5            1 RES     
   23242 C5        -330.0442  -216.1135   480.4860 C5            1 RES     
   23243 C5        -330.2758  -217.6232   479.8197 C5            1 RES     
   23244 C5        -329.9162  -218.1253   478.2859 C5            1 RES     
   23245 C5        -330.4584  -219.5538   477.4226 C5            1 RES     
   23246 C5        -329.8917  -221.1588   477.3089 C5            1 RES     
   23247 C5        -330.3640  -222.7378   476.5826 C5            1 RES     
   23248 C5        -330.2103  -223.6209   475.0427 C5            1 RES     
   23249 C5        -330.0845  -222.3110   474.0721 C5            1 RES     
   23250 C5        -331.1956  -221.1646   474.0881 C5            1 RES     
   23251 C5        -330.7361  -219.7435   473.5423 C5            1 RES     
   23252 C5        -331.8739  -218.6630   473.3868 C5            1 RES     
   23253 C5        -333.0987  -219.1520   472.5832 C5            1 RES     
   23254 C5        -332.7541  -219.7245   471.1869 C5            1 RES     
   23255 C5        -333.2563  -218.9192   469.9829 C5            1 RES     
   23256 C5        -332.7171  -217.4956   469.8973 C5            1 RES     
   23257 C5        -330.4460  -225.4392   474.3082 C5            1 RES     
   23258 C0        -331.3659  -227.1665   474.3528 C0            1 RES     
   23259 C5        -332.7870  -226.7217   474.7839 C5            1 RES     
   23260 C5        -332.8710  -225.5891   475.9177 C5            1 RES     
   23261 C5        -332.7820  -226.1509   477.3471 C5            1 RES     
   23262 C5        -331.6117  -227.1097   477.6658 C5            1 RES     
   23263 C5        -330.1979  -226.5850   477.3333 C5            1 RES     
   23264 C5        -329.0599  -227.3819   477.9577 C5            1 RES     
   23265 C5        -329.1389  -228.8713   477.6210 C5            1 RES     
   23266 C5        -328.1408  -229.6630   478.4597 C5            1 RES     
   23267 C5        -328.4582  -231.1480   478.3475 C5            1 RES     
   23268 C5        -327.6499  -231.9925   479.3057 C5            1 RES     
   23269 C5        -334.1156  -224.6620   475.7027 C5            1 RES     
   23270 C5        -334.2253  -223.2317   476.3575 C5            1 RES     
   23271 C5        -334.5382  -223.0135   477.8629 C5            1 RES     
   23272 C5        -335.8028  -223.7587   478.3089 C5            1 RES     
   23273 C5        -336.3248  -223.3228   479.6966 C5            1 RES     
   23274 C5        -337.3492  -224.3290   480.2661 C5            1 RES     
   23275 C5        -338.5896  -224.6031   479.3902 C5            1 RES     
   23276 C5        -339.5573  -223.4166   479.2236 C5            1 RES     
   23277 C5        -340.1932  -222.9084   480.5328 C5            1 RES     
   23278 C5        -341.0106  -223.9752   481.2667 C5            1 RES     
   23279 H6        -327.3098  -212.8933   484.0978 H6            1 RES     
   23280 H6        -328.8598  -212.0521   483.7232 H6            1 RES     
   23281 H6        -328.7134  -213.0832   485.1830 H6            1 RES     
   23282 H6        -328.4085  -215.1159   483.8086 H6            1 RES     
   23283 H6        -329.9885  -214.3315   483.4136 H6            1 RES     
   23284 H6        -328.9638  -213.3535   481.3072 H6            1 RES     
   23285 H6        -327.3858  -213.9929   481.8285 H6            1 RES     
   23286 H6        -328.1176  -216.3592   481.5492 H6            1 RES     
   23287 H6        -328.0371  -215.4061   480.0243 H6            1 RES     
   23288 H6        -330.5151  -215.3193   479.8598 H6            1 RES     
   23289 H6        -330.6258  -216.1051   481.4388 H6            1 RES     
   23290 H6        -331.3840  -217.7044   479.8750 H6            1 RES     
   23291 H6        -329.8537  -218.3360   480.5490 H6            1 RES     
   23292 H6        -330.3875  -217.2808   477.7237 H6            1 RES     
   23293 H6        -328.8271  -217.9770   478.1361 H6            1 RES     
   23294 H6        -330.3781  -219.1577   476.3890 H6            1 RES     
   23295 H6        -331.5464  -219.5529   477.6481 H6            1 RES     
   23296 H6        -328.8162  -221.0271   477.0704 H6            1 RES     
   23297 H6        -329.9432  -221.3913   478.3921 H6            1 RES     
   23298 H6        -331.4092  -222.8220   476.8954 H6            1 RES     
   23299 H6        -329.8010  -223.3973   477.2562 H6            1 RES     
   23300 H6        -329.1083  -223.7691   475.0937 H6            1 RES     
   23301 H6        -329.7935  -222.5636   473.0328 H6            1 RES     
   23302 H6        -329.2010  -221.7422   474.4659 H6            1 RES     
   23303 H6        -331.5589  -220.9558   475.1138 H6            1 RES     
   23304 H6        -332.0414  -221.5414   473.4924 H6            1 RES     
   23305 H6        -330.2267  -219.8560   472.5707 H6            1 RES     
   23306 H6        -329.9602  -219.2891   474.2015 H6            1 RES     
   23307 H6        -331.4638  -217.7445   472.9013 H6            1 RES     
   23308 H6        -332.2424  -218.3431   474.3890 H6            1 RES     
   23309 H6        -333.5529  -219.9576   473.1929 H6            1 RES     
   23310 H6        -333.8959  -218.3763   472.5140 H6            1 RES     
   23311 H6        -331.6744  -219.9120   471.0657 H6            1 RES     
   23312 H6        -333.2423  -220.7187   471.1123 H6            1 RES     
   23313 H6        -334.3659  -218.8859   469.9996 H6            1 RES     
   23314 H6        -332.9394  -219.4686   469.0685 H6            1 RES     
   23315 H6        -331.6077  -217.4909   469.8769 H6            1 RES     
   23316 H6        -333.0922  -217.0325   468.9583 H6            1 RES     
   23317 H6        -333.0797  -216.8881   470.7516 H6            1 RES     
   23318 H6        -329.3963  -225.8034   474.3877 H6            1 RES     
   23319 H6        -330.4667  -225.2014   473.2237 H6            1 RES     
   23320 H6        -333.2050  -226.3280   473.8376 H6            1 RES     
   23321 H6        -333.3787  -227.6070   475.0890 H6            1 RES     
   23322 H6        -332.0681  -224.8801   475.8400 H6            1 RES     
   23323 H6        -332.7133  -225.2955   478.0421 H6            1 RES     
   23324 H6        -333.7178  -226.6987   477.5670 H6            1 RES     
   23325 H6        -331.6690  -227.3111   478.7558 H6            1 RES     
   23326 H6        -331.7870  -228.0626   477.1237 H6            1 RES     
   23327 H6        -330.0246  -226.6737   476.2790 H6            1 RES     
   23328 H6        -330.0917  -225.5331   477.6434 H6            1 RES     
   23329 H6        -328.0841  -226.9745   477.6046 H6            1 RES     
   23330 H6        -329.1289  -227.2391   479.0542 H6            1 RES     
   23331 H6        -330.1438  -229.2352   477.9065 H6            1 RES     
   23332 H6        -328.9930  -229.0532   476.5315 H6            1 RES     
   23333 H6        -327.0965  -229.4472   478.1427 H6            1 RES     
   23334 H6        -328.2711  -229.3684   479.5220 H6            1 RES     
   23335 H6        -328.2238  -231.4683   477.3235 H6            1 RES     
   23336 H6        -329.5365  -231.3147   478.5826 H6            1 RES     
   23337 H6        -326.5728  -231.9109   479.0598 H6            1 RES     
   23338 H6        -327.9760  -233.0500   479.2059 H6            1 RES     
   23339 H6        -327.8353  -231.6575   480.3476 H6            1 RES     
   23340 H6        -335.0472  -225.2341   475.8615 H6            1 RES     
   23341 H6        -334.0646  -224.3975   474.6222 H6            1 RES     
   23342 H6        -333.3473  -222.6153   476.0867 H6            1 RES     
   23343 H6        -335.0729  -222.7408   475.8316 H6            1 RES     
   23344 H6        -333.6841  -223.2841   478.5181 H6            1 RES     
   23345 H6        -334.7073  -221.9176   477.9985 H6            1 RES     
   23346 H6        -335.5446  -224.8370   478.3234 H6            1 RES     
   23347 H6        -336.6168  -223.5795   477.5748 H6            1 RES     
   23348 H6        -336.7606  -222.2985   479.6401 H6            1 RES     
   23349 H6        -335.4820  -223.2863   480.4209 H6            1 RES     
   23350 H6        -337.6665  -224.0095   481.2812 H6            1 RES     
   23351 H6        -336.8148  -225.2958   480.3880 H6            1 RES     
   23352 H6        -339.1455  -225.4559   479.8304 H6            1 RES     
   23353 H6        -338.2624  -224.9429   478.3861 H6            1 RES     
   23354 H6        -339.0280  -222.5749   478.7297 H6            1 RES     
   23355 H6        -340.3777  -223.7397   478.5448 H6            1 RES     
   23356 H6        -339.4124  -222.5103   481.2128 H6            1 RES     
   23357 H6        -340.8768  -222.0698   480.2772 H6            1 RES     
   23358 H6        -341.8123  -224.3728   480.6084 H6            1 RES     
   23359 H6        -340.3657  -224.8110   481.6072 H6            1 RES     
   23360 H6        -341.4813  -223.5268   482.1668 H6            1 RES     
   23361 C0        -332.4618  -242.5684   470.9891 C0            1 RES     
   23362 C0        -332.1540  -242.0303   472.7318 C0            1 RES     
   23363 C0        -333.3762  -241.8116   473.3547 C0            1 RES     
   23364 S1        -333.3159  -241.0073   474.8717 S1            1 RES     
   23365 C0        -331.6924  -240.7379   475.0877 C0            1 RES     
   23366 C0        -331.1380  -241.4054   473.7966 C0            1 RES     
   23367 C0        -334.4829  -241.7517   472.3991 C0            1 RES     
   23368 C0        -333.6037  -241.5263   471.1798 C0            1 RES     
   23369 C0        -333.4846  -240.2001   470.8988 C0            1 RES     
   23370 C0        -334.3004  -239.3539   471.6460 C0            1 RES     
   23371 S1        -335.3986  -240.1979   472.7514 S1            1 RES     
   23372 H2        -330.0755  -241.2947   473.6158 H2            1 RES     
   23373 H2        -332.6854  -239.7881   470.3046 H2            1 RES     
   23374 N3        -332.3316  -238.4029   478.2646 N3            1 RES     
   23375 C0        -332.4237  -239.1356   477.1443 C0            1 RES     
   23376 C0        -331.3174  -239.8475   476.4799 C0            1 RES     
   23377 C0        -330.0847  -239.6025   477.2576 C0            1 RES     
   23378 N3        -328.8436  -240.0943   476.9465 N3            1 RES     
   23379 S1        -327.8740  -239.5270   478.1767 S1            1 RES     
   23380 N3        -328.9043  -238.6435   479.1190 N3            1 RES     
   23381 C0        -330.0705  -238.7892   478.4758 C0            1 RES     
   23382 C0        -331.1946  -238.1826   478.9804 C0            1 RES     
   23383 H4        -333.4107  -239.1589   476.7388 H4            1 RES     
   23384 C5        -340.8229  -254.4396   458.1290 C5            1 RES     
   23385 C5        -340.1078  -253.6784   459.2813 C5            1 RES     
   23386 C5        -338.8577  -252.8606   458.8182 C5            1 RES     
   23387 C5        -338.2214  -251.7930   459.8348 C5            1 RES     
   23388 C5        -337.3678  -252.2560   461.0931 C5            1 RES     
   23389 C5        -336.8964  -251.2169   462.3076 C5            1 RES     
   23390 C5        -335.6840  -250.0932   462.2725 C5            1 RES     
   23391 C5        -334.9082  -249.2456   463.5991 C5            1 RES     
   23392 C5        -335.2446  -247.8028   464.4447 C5            1 RES     
   23393 C5        -334.6425  -246.8625   465.8580 C5            1 RES     
   23394 C5        -333.4083  -245.6365   466.2433 C5            1 RES     
   23395 C5        -332.3617  -246.0233   465.0480 C5            1 RES     
   23396 C5        -331.8102  -247.5128   464.8862 C5            1 RES     
   23397 C5        -331.2575  -247.8970   463.4457 C5            1 RES     
   23398 C5        -330.5482  -249.3005   463.3302 C5            1 RES     
   23399 C5        -329.4445  -249.5349   464.3847 C5            1 RES     
   23400 C5        -328.3642  -248.4272   464.4296 C5            1 RES     
   23401 C5        -326.9544  -248.8391   463.9899 C5            1 RES     
   23402 C5        -326.8544  -249.3386   462.5527 C5            1 RES     
   23403 C5        -332.9186  -244.3805   467.6867 C5            1 RES     
   23404 C0        -332.8909  -243.9343   469.5924 C0            1 RES     
   23405 C5        -332.7172  -245.3442   470.2129 C5            1 RES     
   23406 C5        -333.5642  -246.5317   469.5437 C5            1 RES     
   23407 C5        -334.9986  -246.6385   470.0892 C5            1 RES     
   23408 C5        -335.8520  -245.3494   470.1114 C5            1 RES     
   23409 C5        -335.9692  -244.5930   468.7702 C5            1 RES     
   23410 C5        -337.0689  -243.5400   468.7272 C5            1 RES     
   23411 C5        -336.9527  -242.5299   469.8692 C5            1 RES     
   23412 C5        -338.1996  -241.6542   469.9378 C5            1 RES     
   23413 C5        -338.2052  -240.8920   471.2559 C5            1 RES     
   23414 C5        -339.5029  -240.1563   471.5002 C5            1 RES     
   23415 C5        -332.7850  -247.8895   469.6058 C5            1 RES     
   23416 C5        -333.1364  -249.1076   468.6679 C5            1 RES     
   23417 C5        -334.3816  -250.0097   468.8856 C5            1 RES     
   23418 C5        -334.4550  -250.5663   470.3133 C5            1 RES     
   23419 C5        -335.4848  -251.7059   470.4844 C5            1 RES     
   23420 C5        -335.7966  -251.9785   471.9725 C5            1 RES     
   23421 C5        -334.5885  -252.3331   472.8646 C5            1 RES     
   23422 C5        -333.9136  -253.6832   472.5587 C5            1 RES     
   23423 C5        -334.8196  -254.9175   472.7378 C5            1 RES     
   23424 C5        -335.3657  -255.0706   474.1602 C5            1 RES     
   23425 H6        -341.1909  -253.7418   457.3424 H6            1 RES     
   23426 H6        -340.1687  -255.1958   457.6450 H6            1 RES     
   23427 H6        -341.7218  -254.9780   458.5146 H6            1 RES     
   23428 H6        -340.8658  -252.9829   459.6981 H6            1 RES     
   23429 H6        -339.8226  -254.4140   460.0604 H6            1 RES     
   23430 H6        -338.0971  -253.5614   458.4055 H6            1 RES     
   23431 H6        -339.2344  -252.2694   457.9495 H6            1 RES     
   23432 H6        -339.0703  -251.1726   460.1818 H6            1 RES     
   23433 H6        -337.5494  -251.1622   459.2190 H6            1 RES     
   23434 H6        -336.5040  -252.8507   460.7126 H6            1 RES     
   23435 H6        -338.0390  -253.0072   461.5742 H6            1 RES     
   23436 H6        -336.5657  -251.9433   463.0827 H6            1 RES     
   23437 H6        -337.8258  -250.7448   462.6699 H6            1 RES     
   23438 H6        -334.8715  -250.7433   461.8618 H6            1 RES     
   23439 H6        -335.9107  -249.3876   461.4470 H6            1 RES     
   23440 H6        -333.9238  -249.0632   463.1202 H6            1 RES     
   23441 H6        -334.7295  -250.0723   464.3197 H6            1 RES     
   23442 H6        -335.3871  -247.0637   463.6296 H6            1 RES     
   23443 H6        -336.2605  -248.0871   464.7869 H6            1 RES     
   23444 H6        -334.5723  -247.6381   466.6267 H6            1 RES     
   23445 H6        -335.5627  -246.3074   466.0831 H6            1 RES     
   23446 H6        -333.8691  -244.8083   465.6596 H6            1 RES     
   23447 H6        -331.5439  -245.2848   464.9273 H6            1 RES     
   23448 H6        -332.9540  -245.9226   464.1002 H6            1 RES     
   23449 H6        -332.5963  -248.2681   465.0846 H6            1 RES     
   23450 H6        -331.0163  -247.6351   465.6393 H6            1 RES     
   23451 H6        -330.5590  -247.1225   463.0875 H6            1 RES     
   23452 H6        -332.0736  -247.8947   462.6859 H6            1 RES     
   23453 H6        -330.1087  -249.4229   462.3106 H6            1 RES     
   23454 H6        -331.2942  -250.1209   463.4444 H6            1 RES     
   23455 H6        -329.9660  -249.5594   465.3616 H6            1 RES     
   23456 H6        -328.9815  -250.5446   464.2944 H6            1 RES     
   23457 H6        -328.6641  -247.5264   463.8689 H6            1 RES     
   23458 H6        -328.2705  -248.1056   465.4879 H6            1 RES     
   23459 H6        -326.5705  -249.6246   464.6739 H6            1 RES     
   23460 H6        -326.3055  -247.9410   464.0938 H6            1 RES     
   23461 H6        -327.2291  -248.5758   461.8394 H6            1 RES     
   23462 H6        -325.7854  -249.5442   462.3248 H6            1 RES     
   23463 H6        -327.4230  -250.2825   462.4264 H6            1 RES     
   23464 H6        -333.4194  -243.4619   467.3042 H6            1 RES     
   23465 H6        -331.8750  -244.1483   467.3862 H6            1 RES     
   23466 H6        -331.6366  -245.5328   470.0641 H6            1 RES     
   23467 H6        -332.9208  -245.3009   471.3009 H6            1 RES     
   23468 H6        -333.6719  -246.4024   468.4831 H6            1 RES     
   23469 H6        -335.5365  -247.3861   469.4798 H6            1 RES     
   23470 H6        -334.9509  -247.0126   471.1294 H6            1 RES     
   23471 H6        -336.8674  -245.6599   470.4345 H6            1 RES     
   23472 H6        -335.4319  -244.6691   470.8816 H6            1 RES     
   23473 H6        -335.0713  -244.0330   468.5981 H6            1 RES     
   23474 H6        -336.1359  -245.2983   467.9404 H6            1 RES     
   23475 H6        -337.0289  -243.0012   467.7520 H6            1 RES     
   23476 H6        -338.0347  -244.0782   468.7968 H6            1 RES     
   23477 H6        -336.9134  -243.0913   470.8217 H6            1 RES     
   23478 H6        -336.0265  -241.9169   469.7812 H6            1 RES     
   23479 H6        -338.2460  -240.9608   469.0690 H6            1 RES     
   23480 H6        -339.0895  -242.3177   469.9267 H6            1 RES     
   23481 H6        -337.3916  -240.1550   471.2247 H6            1 RES     
   23482 H6        -338.0638  -241.6096   472.0989 H6            1 RES     
   23483 H6        -339.6465  -239.3816   470.7213 H6            1 RES     
   23484 H6        -339.4529  -239.6746   472.5002 H6            1 RES     
   23485 H6        -340.3482  -240.8755   471.4910 H6            1 RES     
   23486 H6        -332.6859  -248.2230   470.6542 H6            1 RES     
   23487 H6        -331.7665  -247.6268   469.2398 H6            1 RES     
   23488 H6        -333.1064  -248.7978   467.6061 H6            1 RES     
   23489 H6        -332.2765  -249.8048   468.7706 H6            1 RES     
   23490 H6        -335.3301  -249.4944   468.6271 H6            1 RES     
   23491 H6        -334.2828  -250.8672   468.1765 H6            1 RES     
   23492 H6        -334.7214  -249.7139   470.9706 H6            1 RES     
   23493 H6        -333.4616  -250.9676   470.6061 H6            1 RES     
   23494 H6        -335.1246  -252.6302   469.9762 H6            1 RES     
   23495 H6        -336.4472  -251.4177   470.0079 H6            1 RES     
   23496 H6        -336.5726  -252.7685   472.0559 H6            1 RES     
   23497 H6        -336.2434  -251.0471   472.3821 H6            1 RES     
   23498 H6        -334.9245  -252.3352   473.9215 H6            1 RES     
   23499 H6        -333.8291  -251.5276   472.7915 H6            1 RES     
   23500 H6        -333.5201  -253.6726   471.5205 H6            1 RES     
   23501 H6        -333.0440  -253.7917   473.2444 H6            1 RES     
   23502 H6        -335.6650  -254.8839   472.0204 H6            1 RES     
   23503 H6        -334.2155  -255.8212   472.5045 H6            1 RES     
   23504 H6        -334.5327  -255.1268   474.8932 H6            1 RES     
   23505 H6        -336.0340  -254.2263   474.4264 H6            1 RES     
   23506 H6        -335.9619  -256.0047   474.2293 H6            1 RES     
   23507 C0        -331.6996  -233.7233   481.5946 C0            1 RES     
   23508 C0        -333.3365  -234.4900   481.2023 C0            1 RES     
   23509 C0        -333.4443  -235.6913   481.8914 C0            1 RES     
   23510 S1        -334.7452  -236.7129   481.4269 S1            1 RES     
   23511 C0        -335.4812  -235.8523   480.2132 C0            1 RES     
   23512 C0        -334.5868  -234.5796   480.2095 C0            1 RES     
   23513 C0        -332.1603  -236.1363   482.4345 C0            1 RES     
   23514 C0        -331.3140  -235.2320   481.5533 C0            1 RES     
   23515 C0        -330.8989  -235.8856   480.4342 C0            1 RES     
   23516 C0        -331.1719  -237.2510   480.4022 C0            1 RES     
   23517 S1        -331.9277  -237.8726   481.8796 S1            1 RES     
   23518 H2        -334.7810  -233.8573   479.4258 H2            1 RES     
   23519 H2        -330.5731  -235.3824   479.5386 H2            1 RES     
   23520 N3        -337.8363  -238.9259   479.2335 N3            1 RES     
   23521 C0        -336.8795  -238.1163   479.7124 C0            1 RES     
   23522 C0        -336.7660  -236.6675   479.4673 C0            1 RES     
   23523 C0        -337.8851  -236.2641   478.5902 C0            1 RES     
   23524 N3        -338.1126  -234.9913   478.1349 N3            1 RES     
   23525 S1        -339.5075  -235.1367   477.2358 S1            1 RES     
   23526 N3        -339.8787  -236.7436   477.3360 N3            1 RES     
   23527 C0        -338.8926  -237.2135   478.1116 C0            1 RES     
   23528 C0        -338.8680  -238.5495   478.4287 C0            1 RES     
   23529 H4        -336.1580  -238.6280   480.3098 H4            1 RES     
   23530 C5        -318.6363  -227.2370   494.3811 C5            1 RES     
   23531 C5        -319.8400  -227.6503   493.4872 C5            1 RES     
   23532 C5        -319.7347  -227.1432   492.0115 C5            1 RES     
   23533 C5        -320.7394  -227.7544   490.9181 C5            1 RES     
   23534 C5        -322.2729  -227.3385   490.8801 C5            1 RES     
   23535 C5        -323.4057  -228.1167   489.9378 C5            1 RES     
   23536 C5        -323.6363  -227.9851   488.3058 C5            1 RES     
   23537 C5        -325.0094  -228.4753   487.3289 C5            1 RES     
   23538 C5        -325.4545  -229.9259   486.5494 C5            1 RES     
   23539 C5        -326.8319  -230.6252   485.6232 C5            1 RES     
   23540 C5        -327.4428  -230.6969   483.9510 C5            1 RES     
   23541 C5        -326.7697  -229.3002   483.4316 C5            1 RES     
   23542 C5        -327.0391  -227.9231   484.1932 C5            1 RES     
   23543 C5        -325.9637  -226.7759   483.9568 C5            1 RES     
   23544 C5        -326.3190  -225.3621   484.5579 C5            1 RES     
   23545 C5        -327.7193  -224.8452   484.1616 C5            1 RES     
   23546 C5        -327.9791  -224.8230   482.6358 C5            1 RES     
   23547 C5        -328.1359  -223.4384   481.9965 C5            1 RES     
   23548 C5        -326.9201  -222.5290   482.1367 C5            1 RES     
   23549 C5        -328.7610  -231.6834   482.8600 C5            1 RES     
   23550 C0        -330.4625  -232.6431   482.7362 C0            1 RES     
   23551 C5        -331.3075  -231.8605   483.7738 C5            1 RES     
   23552 C5        -330.5665  -231.4446   485.1352 C5            1 RES     
   23553 C5        -330.5760  -232.5570   486.1977 C5            1 RES     
   23554 C5        -330.1006  -233.9628   485.7640 C5            1 RES     
   23555 C5        -328.7083  -234.0305   485.0992 C5            1 RES     
   23556 C5        -328.1204  -235.4317   484.9941 C5            1 RES     
   23557 C5        -329.0645  -236.4079   484.2915 C5            1 RES     
   23558 C5        -328.5537  -237.8385   484.4287 C5            1 RES     
   23559 C5        -329.6540  -238.8058   484.0139 C5            1 RES     
   23560 C5        -329.3083  -240.2469   484.3115 C5            1 RES     
   23561 C5        -331.1036  -230.0768   485.6787 C5            1 RES     
   23562 C5        -330.2954  -229.2046   486.7145 C5            1 RES     
   23563 C5        -330.1885  -229.5655   488.2212 C5            1 RES     
   23564 C5        -331.5629  -229.7859   488.8661 C5            1 RES     
   23565 C5        -331.5251  -229.8325   490.4104 C5            1 RES     
   23566 C5        -332.8281  -230.4174   490.9986 C5            1 RES     
   23567 C5        -334.1337  -229.6938   490.6073 C5            1 RES     
   23568 C5        -334.2930  -228.2677   491.1664 C5            1 RES     
   23569 C5        -334.3207  -228.1727   492.7048 C5            1 RES     
   23570 C5        -335.4619  -228.9692   493.3435 C5            1 RES     
   23571 H6        -317.6755  -227.6418   493.9887 H6            1 RES     
   23572 H6        -318.5353  -226.1352   494.4800 H6            1 RES     
   23573 H6        -318.7531  -227.6523   495.4109 H6            1 RES     
   23574 H6        -319.8512  -228.7602   493.4924 H6            1 RES     
   23575 H6        -320.7701  -227.2755   493.9602 H6            1 RES     
   23576 H6        -319.7290  -226.0297   492.0091 H6            1 RES     
   23577 H6        -318.7110  -227.4566   491.6957 H6            1 RES     
   23578 H6        -320.6651  -228.8535   491.0299 H6            1 RES     
   23579 H6        -320.3157  -227.4685   489.9345 H6            1 RES     
   23580 H6        -322.3177  -226.2333   490.7351 H6            1 RES     
   23581 H6        -322.5905  -227.4986   491.9383 H6            1 RES     
   23582 H6        -324.3470  -227.7152   490.3743 H6            1 RES     
   23583 H6        -323.3392  -229.1828   490.2155 H6            1 RES     
   23584 H6        -323.6433  -226.8690   488.2320 H6            1 RES     
   23585 H6        -322.6886  -228.2840   487.8126 H6            1 RES     
   23586 H6        -324.8901  -227.7427   486.5039 H6            1 RES     
   23587 H6        -325.8614  -228.0943   487.9319 H6            1 RES     
   23588 H6        -324.5413  -230.1923   485.9783 H6            1 RES     
   23589 H6        -325.4517  -230.5658   487.4551 H6            1 RES     
   23590 H6        -327.6821  -230.3682   486.2625 H6            1 RES     
   23591 H6        -326.6296  -231.6871   485.8152 H6            1 RES     
   23592 H6        -326.6167  -231.3217   483.5434 H6            1 RES     
   23593 H6        -326.8386  -229.1636   482.3338 H6            1 RES     
   23594 H6        -325.6697  -229.4221   483.6167 H6            1 RES     
   23595 H6        -327.0556  -228.0558   485.2931 H6            1 RES     
   23596 H6        -328.0343  -227.5785   483.8722 H6            1 RES     
   23597 H6        -325.7658  -226.6568   482.8785 H6            1 RES     
   23598 H6        -324.9723  -227.0574   484.3824 H6            1 RES     
   23599 H6        -325.5528  -224.6116   484.2461 H6            1 RES     
   23600 H6        -326.2819  -225.3955   485.6715 H6            1 RES     
   23601 H6        -328.4389  -225.5433   484.6323 H6            1 RES     
   23602 H6        -327.9514  -223.8578   484.6234 H6            1 RES     
   23603 H6        -327.2205  -225.3921   482.0733 H6            1 RES     
   23604 H6        -328.9408  -225.3490   482.4609 H6            1 RES     
   23605 H6        -329.0210  -222.9298   482.4329 H6            1 RES     
   23606 H6        -328.3282  -223.6002   480.9124 H6            1 RES     
   23607 H6        -326.0148  -223.0062   481.7082 H6            1 RES     
   23608 H6        -327.1204  -221.5851   481.5838 H6            1 RES     
   23609 H6        -326.7426  -222.2751   483.2018 H6            1 RES     
   23610 H6        -328.0928  -232.4662   482.4338 H6            1 RES     
   23611 H6        -328.8200  -231.0069   481.9813 H6            1 RES     
   23612 H6        -331.5825  -230.9484   483.2101 H6            1 RES     
   23613 H6        -332.2326  -232.4247   484.0038 H6            1 RES     
   23614 H6        -329.5303  -231.2121   484.9757 H6            1 RES     
   23615 H6        -329.9343  -232.2296   487.0347 H6            1 RES     
   23616 H6        -331.6086  -232.6684   486.5790 H6            1 RES     
   23617 H6        -330.0841  -234.5789   486.6870 H6            1 RES     
   23618 H6        -330.8588  -234.3871   485.0729 H6            1 RES     
   23619 H6        -328.7850  -233.7075   484.0797 H6            1 RES     
   23620 H6        -327.9888  -233.3955   485.6404 H6            1 RES     
   23621 H6        -327.1543  -235.3882   484.4395 H6            1 RES     
   23622 H6        -327.9218  -235.7773   486.0277 H6            1 RES     
   23623 H6        -330.0412  -236.3746   484.8099 H6            1 RES     
   23624 H6        -329.2209  -236.1299   483.2240 H6            1 RES     
   23625 H6        -327.6320  -237.9907   483.8246 H6            1 RES     
   23626 H6        -328.3265  -238.0235   485.4994 H6            1 RES     
   23627 H6        -329.8043  -238.7038   482.9307 H6            1 RES     
   23628 H6        -330.5894  -238.5640   484.5727 H6            1 RES     
   23629 H6        -328.4229  -240.5497   483.7185 H6            1 RES     
   23630 H6        -330.1768  -240.8826   484.0356 H6            1 RES     
   23631 H6        -329.1069  -240.3670   485.3964 H6            1 RES     
   23632 H6        -332.1561  -230.1818   485.9975 H6            1 RES     
   23633 H6        -331.0886  -229.4129   484.7848 H6            1 RES     
   23634 H6        -329.2801  -228.9917   486.3298 H6            1 RES     
   23635 H6        -330.7999  -228.2140   486.7092 H6            1 RES     
   23636 H6        -329.5359  -230.4448   488.4023 H6            1 RES     
   23637 H6        -329.6975  -228.6970   488.7237 H6            1 RES     
   23638 H6        -331.9474  -230.7469   488.4680 H6            1 RES     
   23639 H6        -332.2462  -228.9605   488.5738 H6            1 RES     
   23640 H6        -331.3224  -228.8166   490.8216 H6            1 RES     
   23641 H6        -330.7004  -230.4982   490.7464 H6            1 RES     
   23642 H6        -332.7474  -230.4793   492.1045 H6            1 RES     
   23643 H6        -332.9080  -231.4610   490.6252 H6            1 RES     
   23644 H6        -334.9898  -230.3086   490.9524 H6            1 RES     
   23645 H6        -334.2157  -229.6569   489.5015 H6            1 RES     
   23646 H6        -333.4733  -227.6259   490.7805 H6            1 RES     
   23647 H6        -335.2510  -227.8554   490.7785 H6            1 RES     
   23648 H6        -333.3534  -228.5094   493.1305 H6            1 RES     
   23649 H6        -334.4552  -227.1036   492.9785 H6            1 RES     
   23650 H6        -336.4427  -228.6324   492.9449 H6            1 RES     
   23651 H6        -335.3440  -230.0568   493.1599 H6            1 RES     
   23652 H6        -335.4534  -228.8119   494.4426 H6            1 RES     
   23653 C0        -340.4342  -242.6677   475.6787 C0            1 RES     
   23654 C0        -339.6050  -243.1588   477.2575 C0            1 RES     
   23655 C0        -340.3821  -242.7255   478.3242 C0            1 RES     
   23656 S1        -339.6438  -242.7995   479.8738 S1            1 RES     
   23657 C0        -338.1338  -243.4026   479.5400 C0            1 RES     
   23658 C0        -338.2581  -243.5938   478.0013 C0            1 RES     
   23659 C0        -341.4060  -241.7652   477.9105 C0            1 RES     
   23660 C0        -340.7586  -241.4360   476.5753 C0            1 RES     
   23661 C0        -339.9713  -240.3301   476.6708 C0            1 RES     
   23662 C0        -340.0487  -239.6424   477.8795 C0            1 RES     
   23663 S1        -341.2362  -240.3064   479.0150 S1            1 RES     
   23664 H2        -337.3580  -243.8964   477.4797 H2            1 RES     
   23665 H2        -339.1855  -240.0979   475.9708 H2            1 RES     
   23666 N3        -336.8521  -242.7124   483.2595 N3            1 RES     
   23667 C0        -337.5132  -242.7449   482.0922 C0            1 RES     
   23668 C0        -337.1107  -243.4930   480.8879 C0            1 RES     
   23669 C0        -335.8435  -244.1921   481.1871 C0            1 RES     
   23670 N3        -335.1523  -244.9853   480.3084 N3            1 RES     
   23671 S1        -333.8487  -245.5182   481.1983 S1            1 RES     
   23672 N3        -334.0493  -244.7934   482.6695 N3            1 RES     
   23673 C0        -335.1857  -244.1060   482.4931 C0            1 RES     
   23674 C0        -335.6867  -243.3611   483.5324 C0            1 RES     
   23675 H4        -338.3972  -242.1468   482.0946 H4            1 RES     
   23676 C5        -355.9054  -242.5111   463.9811 C5            1 RES     
   23677 C5        -354.7147  -242.7459   464.9535 C5            1 RES     
   23678 C5        -353.3147  -242.4548   464.3201 C5            1 RES     
   23679 C5        -352.0401  -242.3557   465.2918 C5            1 RES     
   23680 C5        -351.3979  -243.6528   465.9485 C5            1 RES     
   23681 C5        -350.2421  -243.5909   467.1473 C5            1 RES     
   23682 C5        -348.6347  -243.2350   466.9945 C5            1 RES     
   23683 C5        -347.3185  -243.5067   468.1232 C5            1 RES     
   23684 C5        -346.6579  -242.6095   469.4150 C5            1 RES     
   23685 C5        -345.4183  -242.7707   470.7117 C5            1 RES     
   23686 C5        -343.6690  -242.5316   470.9511 C5            1 RES     
   23687 C5        -343.2202  -242.7640   469.3960 C5            1 RES     
   23688 C5        -343.6214  -244.0965   468.6135 C5            1 RES     
   23689 C5        -343.6140  -243.9997   467.0264 C5            1 RES     
   23690 C5        -343.8311  -245.3555   466.2511 C5            1 RES     
   23691 C5        -342.8905  -246.4944   466.7022 C5            1 RES     
   23692 C5        -341.3870  -246.1281   466.6642 C5            1 RES     
   23693 C5        -340.5344  -246.8763   465.6328 C5            1 RES     
   23694 C5        -340.9600  -246.6711   464.1831 C5            1 RES     
   23695 C5        -342.3413  -242.4104   472.4084 C5            1 RES     
   23696 C0        -341.7657  -242.9219   474.2080 C0            1 RES     
   23697 C5        -342.3058  -244.3733   474.2784 C5            1 RES     
   23698 C5        -343.7632  -244.6273   473.6563 C5            1 RES     
   23699 C5        -344.9064  -244.3194   474.6385 C5            1 RES     
   23700 C5        -344.8853  -242.9477   475.3516 C5            1 RES     
   23701 C5        -344.7768  -241.7103   474.4341 C5            1 RES     
   23702 C5        -345.0982  -240.3849   475.1121 C5            1 RES     
   23703 C5        -344.2603  -240.1565   476.3706 C5            1 RES     
   23704 C5        -344.7823  -238.9538   477.1499 C5            1 RES     
   23705 C5        -344.1530  -238.9431   478.5364 C5            1 RES     
   23706 C5        -344.7658  -237.9052   479.4485 C5            1 RES     
   23707 C5        -343.8694  -246.0572   473.0249 C5            1 RES     
   23708 C5        -344.9820  -246.4345   471.9729 C5            1 RES     
   23709 C5        -346.4641  -246.6843   472.3636 C5            1 RES     
   23710 C5        -346.6037  -247.7203   473.4865 C5            1 RES     
   23711 C5        -348.0489  -248.2296   473.6867 C5            1 RES     
   23712 C5        -348.2160  -248.9658   475.0344 C5            1 RES     
   23713 C5        -347.2828  -250.1722   475.2684 C5            1 RES     
   23714 C5        -347.5290  -251.3865   474.3537 C5            1 RES     
   23715 C5        -348.9244  -252.0280   474.4874 C5            1 RES     
   23716 C5        -349.2271  -252.5383   475.8990 C5            1 RES     
   23717 H6        -355.9454  -241.4552   463.6285 H6            1 RES     
   23718 H6        -355.8679  -243.1743   463.0907 H6            1 RES     
   23719 H6        -356.8762  -242.7051   464.4975 H6            1 RES     
   23720 H6        -354.8814  -242.0543   465.8055 H6            1 RES     
   23721 H6        -354.7645  -243.7914   465.3194 H6            1 RES     
   23722 H6        -353.1480  -243.1535   463.4692 H6            1 RES     
   23723 H6        -353.4339  -241.4416   463.8672 H6            1 RES     
   23724 H6        -352.3339  -241.6514   466.0941 H6            1 RES     
   23725 H6        -351.2404  -241.8871   464.6838 H6            1 RES     
   23726 H6        -351.0830  -244.3286   465.1186 H6            1 RES     
   23727 H6        -352.2853  -244.1556   466.4022 H6            1 RES     
   23728 H6        -350.2503  -244.6476   467.4954 H6            1 RES     
   23729 H6        -350.6813  -242.9735   467.9497 H6            1 RES     
   23730 H6        -348.3973  -243.9179   466.1409 H6            1 RES     
   23731 H6        -348.5611  -242.2181   466.5573 H6            1 RES     
   23732 H6        -346.4902  -243.5864   467.3889 H6            1 RES     
   23733 H6        -347.5152  -244.5502   468.4504 H6            1 RES     
   23734 H6        -346.4953  -241.6082   468.9655 H6            1 RES     
   23735 H6        -347.5903  -242.5345   470.0108 H6            1 RES     
   23736 H6        -345.6676  -243.7478   471.1365 H6            1 RES     
   23737 H6        -345.8261  -242.0317   471.4140 H6            1 RES     
   23738 H6        -343.6799  -241.4231   470.8498 H6            1 RES     
   23739 H6        -342.1623  -242.4960   469.2018 H6            1 RES     
   23740 H6        -343.8002  -242.0027   468.8101 H6            1 RES     
   23741 H6        -344.6502  -244.4261   468.8596 H6            1 RES     
   23742 H6        -342.9200  -244.8771   468.9466 H6            1 RES     
   23743 H6        -342.6716  -243.5455   466.6776 H6            1 RES     
   23744 H6        -344.4011  -243.2999   466.6605 H6            1 RES     
   23745 H6        -343.7035  -245.1919   465.1536 H6            1 RES     
   23746 H6        -344.8768  -245.7162   466.3891 H6            1 RES     
   23747 H6        -343.1734  -246.7173   467.7496 H6            1 RES     
   23748 H6        -343.0865  -247.4457   466.1556 H6            1 RES     
   23749 H6        -341.2226  -245.0444   466.5447 H6            1 RES     
   23750 H6        -340.9625  -246.3893   467.6561 H6            1 RES     
   23751 H6        -340.5466  -247.9621   465.8636 H6            1 RES     
   23752 H6        -339.4900  -246.5092   465.7458 H6            1 RES     
   23753 H6        -340.9577  -245.5941   463.9165 H6            1 RES     
   23754 H6        -340.2376  -247.2021   463.5252 H6            1 RES     
   23755 H6        -341.9679  -247.0995   464.0072 H6            1 RES     
   23756 H6        -342.3025  -241.3033   472.5256 H6            1 RES     
   23757 H6        -341.4084  -242.5569   471.8239 H6            1 RES     
   23758 H6        -341.5517  -244.9314   473.6910 H6            1 RES     
   23759 H6        -342.2736  -244.7332   475.3256 H6            1 RES     
   23760 H6        -343.9495  -244.0076   472.7992 H6            1 RES     
   23761 H6        -345.8579  -244.3937   474.0827 H6            1 RES     
   23762 H6        -344.9079  -245.0943   475.4282 H6            1 RES     
   23763 H6        -345.8349  -242.8848   475.9227 H6            1 RES     
   23764 H6        -344.0416  -242.9454   476.0732 H6            1 RES     
   23765 H6        -343.7607  -241.5940   474.1125 H6            1 RES     
   23766 H6        -345.4370  -241.8175   473.5585 H6            1 RES     
   23767 H6        -344.9234  -239.5492   474.3952 H6            1 RES     
   23768 H6        -346.1742  -240.4087   475.3749 H6            1 RES     
   23769 H6        -344.3866  -241.0347   477.0314 H6            1 RES     
   23770 H6        -343.1782  -240.0488   476.1282 H6            1 RES     
   23771 H6        -344.5752  -238.0068   476.6041 H6            1 RES     
   23772 H6        -345.8786  -239.0730   477.2768 H6            1 RES     
   23773 H6        -343.0850  -238.7142   478.4221 H6            1 RES     
   23774 H6        -344.3001  -239.9396   479.0172 H6            1 RES     
   23775 H6        -344.5787  -236.8919   479.0418 H6            1 RES     
   23776 H6        -344.2976  -237.9963   480.4521 H6            1 RES     
   23777 H6        -345.8564  -238.0883   479.5442 H6            1 RES     
   23778 H6        -343.8052  -246.8268   473.8147 H6            1 RES     
   23779 H6        -342.9507  -246.1396   472.4009 H6            1 RES     
   23780 H6        -344.9561  -245.7344   471.1165 H6            1 RES     
   23781 H6        -344.6497  -247.4032   471.5404 H6            1 RES     
   23782 H6        -346.9946  -245.7489   472.6385 H6            1 RES     
   23783 H6        -346.9725  -247.0811   471.4514 H6            1 RES     
   23784 H6        -346.2433  -247.2304   474.4138 H6            1 RES     
   23785 H6        -345.9678  -248.6019   473.2585 H6            1 RES     
   23786 H6        -348.3486  -248.8832   472.8351 H6            1 RES     
   23787 H6        -348.7516  -247.3682   473.7084 H6            1 RES     
   23788 H6        -349.2743  -249.2758   475.1653 H6            1 RES     
   23789 H6        -347.9990  -248.2246   475.8334 H6            1 RES     
   23790 H6        -347.3889  -250.4952   476.3241 H6            1 RES     
   23791 H6        -346.2278  -249.8474   475.1573 H6            1 RES     
   23792 H6        -347.3683  -251.0906   473.2958 H6            1 RES     
   23793 H6        -346.7689  -252.1600   474.6035 H6            1 RES     
   23794 H6        -349.7113  -251.3096   474.1789 H6            1 RES     
   23795 H6        -348.9693  -252.8954   473.7934 H6            1 RES     
   23796 H6        -348.4605  -253.2757   476.2193 H6            1 RES     
   23797 H6        -349.2623  -251.7035   476.6285 H6            1 RES     
   23798 H6        -350.2208  -253.0337   475.9084 H6            1 RES     
   23799 C0        -333.2081  -240.8245   487.3269 C0            1 RES     
   23800 C0        -335.0329  -240.5247   487.3649 C0            1 RES     
   23801 C0        -335.6763  -241.7197   487.6613 C0            1 RES     
   23802 S1        -337.3795  -241.7348   487.4365 S1            1 RES     
   23803 C0        -337.6983  -240.1996   486.8917 C0            1 RES     
   23804 C0        -336.2629  -239.6012   486.9281 C0            1 RES     
   23805 C0        -334.7872  -242.8749   487.5331 C0            1 RES     
   23806 C0        -333.7360  -242.1522   486.7065 C0            1 RES     
   23807 C0        -333.9387  -242.3476   485.3751 C0            1 RES     
   23808 C0        -334.9237  -243.2769   485.0493 C0            1 RES     
   23809 S1        -335.6486  -244.0842   486.4504 S1            1 RES     
   23810 H2        -336.1468  -238.6041   486.5205 H2            1 RES     
   23811 H2        -333.5374  -241.7013   484.6117 H2            1 RES     
   23812 N3        -341.4826  -241.1194   486.0047 N3            1 RES     
   23813 C0        -340.1755  -241.1240   486.3080 C0            1 RES     
   23814 C0        -339.3191  -239.9360   486.4731 C0            1 RES     
   23815 C0        -340.1501  -238.7375   486.2336 C0            1 RES     
   23816 N3        -339.7035  -237.4427   486.2887 N3            1 RES     
   23817 S1        -341.0675  -236.5403   485.9718 S1            1 RES     
   23818 N3        -342.2453  -237.6732   485.7284 N3            1 RES     
   23819 C0        -341.5760  -238.8198   485.9086 C0            1 RES     
   23820 C0        -342.2456  -240.0128   485.7885 C0            1 RES     
   23821 H4        -339.7741  -242.1069   486.4171 H4            1 RES     
   23822 C5        -316.8931  -247.2218   495.6401 C5            1 RES     
   23823 C5        -318.2486  -246.6151   495.1785 C5            1 RES     
   23824 C5        -318.1182  -245.6104   493.9870 C5            1 RES     
   23825 C5        -319.4529  -245.1572   493.2178 C5            1 RES     
   23826 C5        -320.4809  -244.1388   493.8753 C5            1 RES     
   23827 C5        -321.9886  -243.8262   493.2381 C5            1 RES     
   23828 C5        -322.3657  -242.8964   491.9239 C5            1 RES     
   23829 C5        -323.9155  -242.2378   491.4295 C5            1 RES     
   23830 C5        -325.2081  -242.8254   490.4840 C5            1 RES     
   23831 C5        -326.8692  -242.3503   489.9750 C5            1 RES     
   23832 C5        -327.6760  -241.3932   488.7071 C5            1 RES     
   23833 C5        -326.4354  -240.3711   488.4075 C5            1 RES     
   23834 C5        -325.7700  -239.5174   489.5811 C5            1 RES     
   23835 C5        -324.2937  -238.9932   489.3085 C5            1 RES     
   23836 C5        -323.7039  -238.0016   490.3833 C5            1 RES     
   23837 C5        -324.6245  -236.8041   490.7051 C5            1 RES     
   23838 C5        -325.0691  -235.9939   489.4633 C5            1 RES     
   23839 C5        -324.5323  -234.5614   489.3626 C5            1 RES     
   23840 C5        -323.0127  -234.4520   489.3004 C5            1 RES     
   23841 C5        -329.4744  -241.0950   487.9468 C5            1 RES     
   23842 C0        -331.4159  -241.0364   488.1891 C0            1 RES     
   23843 C5        -331.5058  -240.5144   489.6461 C5            1 RES     
   23844 C5        -330.4518  -241.1226   490.6922 C5            1 RES     
   23845 C5        -330.9058  -242.4577   491.3072 C5            1 RES     
   23846 C5        -331.3662  -243.5705   490.3376 C5            1 RES     
   23847 C5        -330.3733  -243.9427   489.2150 C5            1 RES     
   23848 C5        -330.6866  -245.2476   488.4947 C5            1 RES     
   23849 C5        -332.1115  -245.2792   487.9408 C5            1 RES     
   23850 C5        -332.4653  -246.6808   487.4541 C5            1 RES     
   23851 C5        -333.9666  -246.7643   487.2144 C5            1 RES     
   23852 C5        -334.4353  -248.1723   486.9273 C5            1 RES     
   23853 C5        -330.0452  -240.0610   491.7704 C5            1 RES     
   23854 C5        -328.7355  -240.1985   492.6379 C5            1 RES     
   23855 C5        -328.6066  -241.1966   493.8207 C5            1 RES     
   23856 C5        -329.7479  -241.0481   494.8351 C5            1 RES     
   23857 C5        -329.4951  -241.7874   496.1684 C5            1 RES     
   23858 C5        -330.7892  -241.9292   496.9998 C5            1 RES     
   23859 C5        -331.5172  -240.6148   497.3511 C5            1 RES     
   23860 C5        -330.7672  -239.6815   498.3198 C5            1 RES     
   23861 C5        -330.4904  -240.2789   499.7137 C5            1 RES     
   23862 C5        -331.7616  -240.6796   500.4676 C5            1 RES     
   23863 H6        -316.3957  -247.7873   494.8192 H6            1 RES     
   23864 H6        -316.1839  -246.4517   496.0116 H6            1 RES     
   23865 H6        -317.0535  -247.9516   496.4697 H6            1 RES     
   23866 H6        -318.8721  -247.4775   494.8630 H6            1 RES     
   23867 H6        -318.7247  -246.1224   496.0503 H6            1 RES     
   23868 H6        -317.4967  -244.7441   494.3080 H6            1 RES     
   23869 H6        -317.5064  -246.1665   493.2369 H6            1 RES     
   23870 H6        -319.9835  -246.0962   492.9677 H6            1 RES     
   23871 H6        -319.1061  -244.6843   492.2772 H6            1 RES     
   23872 H6        -319.9281  -243.1933   494.0871 H6            1 RES     
   23873 H6        -320.6593  -244.5937   494.8791 H6            1 RES     
   23874 H6        -322.4648  -243.2915   494.0897 H6            1 RES     
   23875 H6        -322.4806  -244.8098   493.1467 H6            1 RES     
   23876 H6        -321.7645  -241.9907   492.1876 H6            1 RES     
   23877 H6        -321.8365  -243.3287   491.0500 H6            1 RES     
   23878 H6        -323.5443  -241.3529   490.8722 H6            1 RES     
   23879 H6        -324.3034  -241.8326   492.3887 H6            1 RES     
   23880 H6        -324.7015  -243.1824   489.5637 H6            1 RES     
   23881 H6        -325.4152  -243.7279   491.0943 H6            1 RES     
   23882 H6        -327.3186  -242.0587   490.9291 H6            1 RES     
   23883 H6        -327.2618  -243.3527   489.7588 H6            1 RES     
   23884 H6        -327.4131  -242.0639   487.8585 H6            1 RES     
   23885 H6        -326.5921  -239.7463   487.5054 H6            1 RES     
   23886 H6        -325.5749  -241.0342   488.1265 H6            1 RES     
   23887 H6        -325.6807  -240.1023   490.5178 H6            1 RES     
   23888 H6        -326.4433  -238.6666   489.7684 H6            1 RES     
   23889 H6        -324.2390  -238.5085   488.3195 H6            1 RES     
   23890 H6        -323.5718  -239.8396   489.2332 H6            1 RES     
   23891 H6        -322.7121  -237.6165   490.0432 H6            1 RES     
   23892 H6        -323.5135  -238.5390   491.3412 H6            1 RES     
   23893 H6        -325.5238  -237.2396   491.1832 H6            1 RES     
   23894 H6        -324.1928  -236.1373   491.4867 H6            1 RES     
   23895 H6        -324.8553  -236.5225   488.5195 H6            1 RES     
   23896 H6        -326.1742  -235.9014   489.5126 H6            1 RES     
   23897 H6        -324.9032  -233.9681   490.2245 H6            1 RES     
   23898 H6        -324.9528  -234.1207   488.4313 H6            1 RES     
   23899 H6        -322.6066  -235.0333   488.4471 H6            1 RES     
   23900 H6        -322.7418  -233.3821   489.1632 H6            1 RES     
   23901 H6        -322.5562  -234.8059   490.2474 H6            1 RES     
   23902 H6        -329.4310  -241.8107   487.0944 H6            1 RES     
   23903 H6        -329.2885  -240.1511   487.3919 H6            1 RES     
   23904 H6        -331.3152  -239.4316   489.5179 H6            1 RES     
   23905 H6        -332.5372  -240.6478   490.0274 H6            1 RES     
   23906 H6        -329.5022  -241.3282   490.2348 H6            1 RES     
   23907 H6        -330.0659  -242.8579   491.9022 H6            1 RES     
   23908 H6        -331.7497  -242.2578   491.9942 H6            1 RES     
   23909 H6        -331.5463  -244.4681   490.9651 H6            1 RES     
   23910 H6        -332.3315  -243.2591   489.8862 H6            1 RES     
   23911 H6        -330.4204  -243.2040   488.4393 H6            1 RES     
   23912 H6        -329.3468  -244.0061   489.6103 H6            1 RES     
   23913 H6        -329.9624  -245.3939   487.6598 H6            1 RES     
   23914 H6        -330.5503  -246.0641   489.2309 H6            1 RES     
   23915 H6        -332.8076  -245.0523   488.7701 H6            1 RES     
   23916 H6        -332.2563  -244.5190   487.1393 H6            1 RES     
   23917 H6        -331.8937  -246.9379   486.5350 H6            1 RES     
   23918 H6        -332.2105  -247.4012   488.2593 H6            1 RES     
   23919 H6        -334.2066  -246.1371   486.3455 H6            1 RES     
   23920 H6        -334.5069  -246.4111   488.1250 H6            1 RES     
   23921 H6        -333.9751  -248.5359   485.9875 H6            1 RES     
   23922 H6        -335.5413  -248.1616   486.8209 H6            1 RES     
   23923 H6        -334.1634  -248.8371   487.7736 H6            1 RES     
   23924 H6        -330.9118  -239.8197   492.4115 H6            1 RES     
   23925 H6        -329.8082  -239.1529   491.1709 H6            1 RES     
   23926 H6        -327.8499  -240.3101   491.9841 H6            1 RES     
   23927 H6        -328.5993  -239.2013   493.1100 H6            1 RES     
   23928 H6        -328.5319  -242.2507   493.4811 H6            1 RES     
   23929 H6        -327.6436  -240.9600   494.3350 H6            1 RES     
   23930 H6        -330.6584  -241.4503   494.3462 H6            1 RES     
   23931 H6        -329.8953  -239.9731   495.0723 H6            1 RES     
   23932 H6        -328.7005  -241.2680   496.7524 H6            1 RES     
   23933 H6        -329.1367  -242.8198   495.9638 H6            1 RES     
   23934 H6        -330.5803  -242.5046   497.9264 H6            1 RES     
   23935 H6        -331.4928  -242.5413   496.3955 H6            1 RES     
   23936 H6        -332.5018  -240.8692   497.7936 H6            1 RES     
   23937 H6        -331.7410  -240.0583   496.4178 H6            1 RES     
   23938 H6        -329.8039  -239.3718   497.8627 H6            1 RES     
   23939 H6        -331.3833  -238.7646   498.4540 H6            1 RES     
   23940 H6        -329.8187  -241.1578   499.6312 H6            1 RES     
   23941 H6        -329.9638  -239.5079   500.3172 H6            1 RES     
   23942 H6        -332.4398  -239.8067   500.5789 H6            1 RES     
   23943 H6        -332.2975  -241.4977   499.9443 H6            1 RES     
   23944 H6        -331.4912  -241.0492   501.4791 H6            1 RES     
   23945 C0        -346.2484  -241.3084   482.7432 C0            1 RES     
   23946 C0        -345.5903  -242.7590   483.6833 C0            1 RES     
   23947 C0        -345.8136  -242.5522   485.0386 C0            1 RES     
   23948 S1        -345.0031  -243.6247   486.1085 S1            1 RES     
   23949 C0        -344.1577  -244.6132   485.0774 C0            1 RES     
   23950 C0        -344.6120  -244.0235   483.7115 C0            1 RES     
   23951 C0        -346.1840  -241.1677   485.3348 C0            1 RES     
   23952 C0        -345.6868  -240.6036   484.0138 C0            1 RES     
   23953 C0        -344.4155  -240.1319   484.1287 C0            1 RES     
   23954 C0        -343.9037  -240.0990   485.4236 C0            1 RES     
   23955 S1        -345.0595  -240.5967   486.6713 S1            1 RES     
   23956 H2        -344.1282  -244.4250   482.8292 H2            1 RES     
   23957 H2        -343.7572  -239.9869   483.2878 H2            1 RES     
   23958 N3        -342.1319  -246.2945   488.0812 N3            1 RES     
   23959 C0        -342.8769  -245.5091   487.2884 C0            1 RES     
   23960 C0        -343.1561  -245.7346   485.8590 C0            1 RES     
   23961 C0        -342.4606  -246.9722   485.4479 C0            1 RES     
   23962 N3        -342.4767  -247.5051   484.1850 N3            1 RES     
   23963 S1        -341.5646  -248.8916   484.3295 S1            1 RES     
   23964 N3        -341.0908  -248.8920   485.9124 N3            1 RES     
   23965 C0        -341.6663  -247.7760   486.3798 C0            1 RES     
   23966 C0        -341.4958  -247.4361   487.6994 C0            1 RES     
   23967 H4        -343.2671  -244.6536   487.7935 H4            1 RES     
   23968 C5        -360.6733  -229.1543   478.2247 C5            1 RES     
   23969 C5        -359.6750  -230.2954   478.5710 C5            1 RES     
   23970 C5        -358.4718  -230.4053   477.5778 C5            1 RES     
   23971 C5        -357.2201  -231.3228   477.9899 C5            1 RES     
   23972 C5        -357.3092  -232.9092   477.9512 C5            1 RES     
   23973 C5        -356.1387  -233.9043   478.5967 C5            1 RES     
   23974 C5        -354.6531  -234.2690   477.9691 C5            1 RES     
   23975 C5        -353.5477  -235.5636   478.3957 C5            1 RES     
   23976 C5        -352.3037  -235.7303   479.5510 C5            1 RES     
   23977 C5        -351.1727  -236.9797   480.1864 C5            1 RES     
   23978 C5        -349.5730  -237.6724   479.8177 C5            1 RES     
   23979 C5        -349.5848  -237.3605   478.2126 C5            1 RES     
   23980 C5        -350.7765  -237.8741   477.2826 C5            1 RES     
   23981 C5        -350.9714  -237.0966   475.9093 C5            1 RES     
   23982 C5        -352.0245  -237.7127   474.9106 C5            1 RES     
   23983 C5        -351.8152  -239.2162   474.6261 C5            1 RES     
   23984 C5        -350.3904  -239.5779   474.1413 C5            1 RES     
   23985 C5        -350.2741  -240.0792   472.6971 C5            1 RES     
   23986 C5        -350.7405  -239.0869   471.6375 C5            1 RES     
   23987 C5        -348.1879  -238.8120   480.6444 C5            1 RES     
   23988 C0        -347.7127  -240.2647   481.8673 C0            1 RES     
   23989 C5        -348.9470  -241.1886   481.7058 C5            1 RES     
   23990 C5        -350.3778  -240.4664   481.6245 C5            1 RES     
   23991 C5        -350.9834  -240.1581   483.0046 C5            1 RES     
   23992 C5        -350.0914  -239.4153   484.0260 C5            1 RES     
   23993 C5        -349.4641  -238.0910   483.5387 C5            1 RES     
   23994 C5        -348.8831  -237.2175   484.6429 C5            1 RES     
   23995 C5        -347.8704  -237.9689   485.5076 C5            1 RES     
   23996 C5        -347.5051  -237.1474   486.7396 C5            1 RES     
   23997 C5        -346.7628  -238.0332   487.7310 C5            1 RES     
   23998 C5        -346.5418  -237.3591   489.0657 C5            1 RES     
   23999 C5        -351.3585  -241.2533   480.6897 C5            1 RES     
   24000 C5        -352.6449  -240.5884   480.0654 C5            1 RES     
   24001 C5        -353.9312  -240.3022   480.8872 C5            1 RES     
   24002 C5        -354.4394  -241.5470   481.6260 C5            1 RES     
   24003 C5        -355.8699  -241.3946   482.1904 C5            1 RES     
   24004 C5        -356.1984  -242.4936   483.2250 C5            1 RES     
   24005 C5        -356.0673  -243.9500   482.7323 C5            1 RES     
   24006 C5        -357.0882  -244.3811   481.6628 C5            1 RES     
   24007 C5        -358.5620  -244.3241   482.1113 C5            1 RES     
   24008 C5        -358.8657  -245.2155   483.3188 C5            1 RES     
   24009 H6        -360.1773  -228.1570   478.2373 H6            1 RES     
   24010 H6        -361.1531  -229.2920   477.2323 H6            1 RES     
   24011 H6        -361.4909  -229.1062   478.9836 H6            1 RES     
   24012 H6        -359.2912  -230.0614   479.5858 H6            1 RES     
   24013 H6        -360.2366  -231.2508   478.6064 H6            1 RES     
   24014 H6        -358.8595  -230.6452   476.5619 H6            1 RES     
   24015 H6        -358.0803  -229.3616   477.5190 H6            1 RES     
   24016 H6        -356.9410  -231.0007   479.0119 H6            1 RES     
   24017 H6        -356.4047  -231.0406   477.2940 H6            1 RES     
   24018 H6        -357.5597  -233.2061   476.9055 H6            1 RES     
   24019 H6        -358.2399  -233.1108   478.5338 H6            1 RES     
   24020 H6        -356.6753  -234.8789   478.5978 H6            1 RES     
   24021 H6        -356.0265  -233.5858   479.6474 H6            1 RES     
   24022 H6        -354.9747  -234.5267   476.9291 H6            1 RES     
   24023 H6        -354.0994  -233.3146   477.8535 H6            1 RES     
   24024 H6        -353.0332  -235.6652   477.4177 H6            1 RES     
   24025 H6        -354.2343  -236.4355   478.4522 H6            1 RES     
   24026 H6        -351.6880  -234.8220   479.3870 H6            1 RES     
   24027 H6        -352.9281  -235.5248   480.4442 H6            1 RES     
   24028 H6        -351.8498  -237.8200   480.3679 H6            1 RES     
   24029 H6        -350.9835  -236.5358   481.1727 H6            1 RES     
   24030 H6        -348.9838  -236.7587   480.0563 H6            1 RES     
   24031 H6        -348.6034  -237.5326   477.7269 H6            1 RES     
   24032 H6        -349.7304  -236.2506   478.1340 H6            1 RES     
   24033 H6        -351.7600  -237.7860   477.7852 H6            1 RES     
   24034 H6        -350.5829  -238.9403   477.0876 H6            1 RES     
   24035 H6        -350.0058  -237.0037   475.3847 H6            1 RES     
   24036 H6        -351.2849  -236.0409   476.0837 H6            1 RES     
   24037 H6        -352.0056  -237.1538   473.9437 H6            1 RES     
   24038 H6        -353.0563  -237.5933   475.3151 H6            1 RES     
   24039 H6        -352.0018  -239.7305   475.5892 H6            1 RES     
   24040 H6        -352.5902  -239.6281   473.9392 H6            1 RES     
   24041 H6        -349.6746  -238.7528   474.2915 H6            1 RES     
   24042 H6        -350.0293  -240.4098   474.7815 H6            1 RES     
   24043 H6        -350.8489  -241.0226   472.5878 H6            1 RES     
   24044 H6        -349.1996  -240.3045   472.5161 H6            1 RES     
   24045 H6        -350.1843  -238.1301   471.7163 H6            1 RES     
   24046 H6        -350.5503  -239.5275   470.6342 H6            1 RES     
   24047 H6        -351.8293  -238.8975   471.7315 H6            1 RES     
   24048 H6        -347.5237  -238.0185   481.0568 H6            1 RES     
   24049 H6        -347.6009  -239.0784   479.7400 H6            1 RES     
   24050 H6        -348.7346  -241.6955   480.7450 H6            1 RES     
   24051 H6        -348.9523  -241.9488   482.5116 H6            1 RES     
   24052 H6        -350.3239  -239.5202   481.1194 H6            1 RES     
   24053 H6        -351.8907  -239.5487   482.8464 H6            1 RES     
   24054 H6        -351.2875  -241.1124   483.4748 H6            1 RES     
   24055 H6        -350.7405  -239.2007   484.9004 H6            1 RES     
   24056 H6        -349.2853  -240.1069   484.3493 H6            1 RES     
   24057 H6        -348.6213  -238.3063   482.9119 H6            1 RES     
   24058 H6        -350.2031  -237.4939   482.9808 H6            1 RES     
   24059 H6        -348.3921  -236.3248   484.1902 H6            1 RES     
   24060 H6        -349.7330  -236.8776   485.2670 H6            1 RES     
   24061 H6        -348.3544  -238.8913   485.8802 H6            1 RES     
   24062 H6        -346.9658  -238.2552   484.9235 H6            1 RES     
   24063 H6        -346.8986  -236.2582   486.4583 H6            1 RES     
   24064 H6        -348.4462  -236.8125   487.2237 H6            1 RES     
   24065 H6        -345.7820  -238.2758   487.3005 H6            1 RES     
   24066 H6        -347.3582  -238.9586   487.9182 H6            1 RES     
   24067 H6        -345.8925  -236.4712   488.9337 H6            1 RES     
   24068 H6        -346.0490  -238.0829   489.7496 H6            1 RES     
   24069 H6        -347.5187  -237.0627   489.5015 H6            1 RES     
   24070 H6        -351.6059  -242.2325   481.1371 H6            1 RES     
   24071 H6        -350.7538  -241.4459   479.7745 H6            1 RES     
   24072 H6        -352.3731  -239.6736   479.5057 H6            1 RES     
   24073 H6        -352.9799  -241.2979   479.2779 H6            1 RES     
   24074 H6        -353.8019  -239.4610   481.5998 H6            1 RES     
   24075 H6        -354.7126  -239.9815   480.1561 H6            1 RES     
   24076 H6        -353.7248  -241.7365   482.4525 H6            1 RES     
   24077 H6        -354.4452  -242.4136   480.9313 H6            1 RES     
   24078 H6        -356.6135  -241.3931   481.3601 H6            1 RES     
   24079 H6        -355.9629  -240.4226   482.7220 H6            1 RES     
   24080 H6        -357.2135  -242.3259   483.6428 H6            1 RES     
   24081 H6        -355.4821  -242.3669   484.0652 H6            1 RES     
   24082 H6        -356.1637  -244.6240   483.6077 H6            1 RES     
   24083 H6        -355.0435  -244.1134   482.3375 H6            1 RES     
   24084 H6        -356.9625  -243.7512   480.7571 H6            1 RES     
   24085 H6        -356.8561  -245.4305   481.3746 H6            1 RES     
   24086 H6        -358.8559  -243.2796   482.3415 H6            1 RES     
   24087 H6        -359.1907  -244.6719   481.2630 H6            1 RES     
   24088 H6        -358.5969  -246.2712   483.1009 H6            1 RES     
   24089 H6        -358.3146  -244.8736   484.2187 H6            1 RES     
   24090 H6        -359.9503  -245.1669   483.5513 H6            1 RES     
   24091 C0        -337.4570  -248.2404   490.8643 C0            1 RES     
   24092 C0        -338.7751  -247.2177   491.6631 C0            1 RES     
   24093 C0        -339.9154  -247.9966   491.8140 C0            1 RES     
   24094 S1        -341.3509  -247.1562   492.2440 S1            1 RES     
   24095 C0        -340.8476  -245.5768   492.3307 C0            1 RES     
   24096 C0        -339.3378  -245.7605   492.0046 C0            1 RES     
   24097 C0        -339.8501  -249.2327   491.0334 C0            1 RES     
   24098 C0        -338.7236  -248.7662   490.1256 C0            1 RES     
   24099 C0        -339.2110  -248.2372   488.9704 C0            1 RES     
   24100 C0        -340.5827  -248.3817   488.7775 C0            1 RES     
   24101 S1        -341.3976  -249.3134   490.0457 S1            1 RES     
   24102 H2        -338.7557  -244.8536   491.8936 H2            1 RES     
   24103 H2        -338.6473  -247.5715   488.3375 H2            1 RES     
   24104 N3        -344.5904  -244.2281   492.6855 N3            1 RES     
   24105 C0        -343.4768  -244.9437   492.4661 C0            1 RES     
   24106 C0        -342.0924  -244.4695   492.6407 C0            1 RES     
   24107 C0        -342.1452  -243.0620   493.0883 C0            1 RES     
   24108 N3        -341.0539  -242.2746   493.3494 N3            1 RES     
   24109 S1        -341.7185  -240.8280   493.8402 S1            1 RES     
   24110 N3        -343.3475  -241.0826   493.7321 N3            1 RES     
   24111 C0        -343.4075  -242.3519   493.3074 C0            1 RES     
   24112 C0        -344.6349  -242.9326   493.1016 C0            1 RES     
   24113 H4        -343.6763  -245.9356   492.1260 H4            1 RES     
   24114 C5        -326.3448  -264.1267   490.2634 C5            1 RES     
   24115 C5        -327.1896  -262.8500   490.5372 C5            1 RES     
   24116 C5        -326.7173  -261.5950   489.7322 C5            1 RES     
   24117 C5        -327.6795  -260.3104   489.6824 C5            1 RES     
   24118 C5        -327.8492  -259.3550   490.9411 C5            1 RES     
   24119 C5        -329.0095  -258.1622   491.0307 C5            1 RES     
   24120 C5        -329.0129  -256.6870   490.2842 C5            1 RES     
   24121 C5        -329.9929  -255.2695   490.6164 C5            1 RES     
   24122 C5        -331.5259  -254.7362   490.0914 C5            1 RES     
   24123 C5        -332.7009  -253.4061   490.3984 C5            1 RES     
   24124 C5        -333.0326  -251.7403   489.8603 C5            1 RES     
   24125 C5        -331.5009  -251.3585   489.4341 C5            1 RES     
   24126 C5        -330.2960  -251.5086   490.4708 C5            1 RES     
   24127 C5        -328.8435  -251.6309   489.8355 C5            1 RES     
   24128 C5        -327.6397  -251.5964   490.8534 C5            1 RES     
   24129 C5        -327.6763  -250.3995   491.8287 C5            1 RES     
   24130 C5        -327.7894  -249.0198   491.1361 C5            1 RES     
   24131 C5        -326.5731  -248.0957   491.2666 C5            1 RES     
   24132 C5        -325.2814  -248.6539   490.6795 C5            1 RES     
   24133 C5        -334.4580  -250.3757   489.9452 C5            1 RES     
   24134 C0        -335.9724  -249.5803   490.8968 C0            1 RES     
   24135 C5        -335.5229  -249.7813   492.3667 C5            1 RES     
   24136 C5        -334.8314  -251.1858   492.7196 C5            1 RES     
   24137 C5        -335.8435  -252.2991   493.0401 C5            1 RES     
   24138 C5        -336.9919  -252.5321   492.0315 C5            1 RES     
   24139 C5        -336.5673  -252.7617   490.5646 C5            1 RES     
   24140 C5        -337.6620  -253.3202   489.6649 C5            1 RES     
   24141 C5        -338.9321  -252.4694   489.6966 C5            1 RES     
   24142 C5        -340.0759  -253.1891   488.9896 C5            1 RES     
   24143 C5        -341.3869  -252.4846   489.3115 C5            1 RES     
   24144 C5        -342.5962  -253.2474   488.8211 C5            1 RES     
   24145 C5        -333.7379  -251.0172   493.8290 C5            1 RES     
   24146 C5        -332.6053  -252.0884   494.0670 C5            1 RES     
   24147 C5        -332.8636  -253.4489   494.7700 C5            1 RES     
   24148 C5        -333.5507  -253.2799   496.1312 C5            1 RES     
   24149 C5        -333.5403  -254.5603   496.9965 C5            1 RES     
   24150 C5        -334.5425  -254.4689   498.1683 C5            1 RES     
   24151 C5        -334.3521  -253.2791   499.1323 C5            1 RES     
   24152 C5        -333.0669  -253.3135   499.9802 C5            1 RES     
   24153 C5        -332.9484  -254.5208   500.9313 C5            1 RES     
   24154 C5        -334.0878  -254.6067   501.9508 C5            1 RES     
   24155 H6        -326.3836  -264.4222   489.1900 H6            1 RES     
   24156 H6        -325.2792  -264.0048   490.5525 H6            1 RES     
   24157 H6        -326.7473  -264.9933   490.8409 H6            1 RES     
   24158 H6        -328.2275  -263.1065   490.2387 H6            1 RES     
   24159 H6        -327.1656  -262.6432   491.6262 H6            1 RES     
   24160 H6        -325.6780  -261.3370   490.0375 H6            1 RES     
   24161 H6        -326.6462  -261.9652   488.6815 H6            1 RES     
   24162 H6        -328.6735  -260.6968   489.3846 H6            1 RES     
   24163 H6        -327.2850  -259.6770   488.8627 H6            1 RES     
   24164 H6        -326.8397  -258.9563   491.1987 H6            1 RES     
   24165 H6        -328.0861  -260.0768   491.7591 H6            1 RES     
   24166 H6        -328.9655  -257.9137   492.1143 H6            1 RES     
   24167 H6        -329.9712  -258.6709   490.8455 H6            1 RES     
   24168 H6        -327.9776  -256.3637   490.5579 H6            1 RES     
   24169 H6        -328.9604  -256.8692   489.1911 H6            1 RES     
   24170 H6        -329.2885  -254.4960   490.2459 H6            1 RES     
   24171 H6        -329.9313  -255.2086   491.7242 H6            1 RES     
   24172 H6        -331.4576  -254.8293   488.9879 H6            1 RES     
   24173 H6        -332.0974  -255.6194   490.4425 H6            1 RES     
   24174 H6        -332.7532  -253.4045   491.4914 H6            1 RES     
   24175 H6        -333.6118  -253.9178   490.0608 H6            1 RES     
   24176 H6        -333.3257  -252.0020   488.8188 H6            1 RES     
   24177 H6        -331.4272  -250.4014   488.8798 H6            1 RES     
   24178 H6        -331.2107  -252.1305   488.6732 H6            1 RES     
   24179 H6        -330.3971  -252.4203   491.0923 H6            1 RES     
   24180 H6        -330.3443  -250.6315   491.1345 H6            1 RES     
   24181 H6        -328.6887  -250.8378   489.0851 H6            1 RES     
   24182 H6        -328.7351  -252.5760   489.2538 H6            1 RES     
   24183 H6        -326.6708  -251.5831   490.2979 H6            1 RES     
   24184 H6        -327.6285  -252.5250   491.4700 H6            1 RES     
   24185 H6        -328.5755  -250.5542   492.4568 H6            1 RES     
   24186 H6        -326.8287  -250.4179   492.5521 H6            1 RES     
   24187 H6        -328.0591  -249.1067   490.0706 H6            1 RES     
   24188 H6        -328.6328  -248.4816   491.6170 H6            1 RES     
   24189 H6        -326.4090  -247.8526   492.3373 H6            1 RES     
   24190 H6        -326.8217  -247.1526   490.7307 H6            1 RES     
   24191 H6        -325.4087  -248.9071   489.6068 H6            1 RES     
   24192 H6        -324.4891  -247.8788   490.7706 H6            1 RES     
   24193 H6        -324.9528  -249.5522   491.2411 H6            1 RES     
   24194 H6        -334.9560  -250.5739   488.9686 H6            1 RES     
   24195 H6        -333.8721  -249.4756   489.6629 H6            1 RES     
   24196 H6        -334.7875  -248.9646   492.4993 H6            1 RES     
   24197 H6        -336.3780  -249.5993   493.0469 H6            1 RES     
   24198 H6        -334.2431  -251.5621   491.9038 H6            1 RES     
   24199 H6        -335.2840  -253.2464   493.1358 H6            1 RES     
   24200 H6        -336.3118  -252.0760   494.0174 H6            1 RES     
   24201 H6        -337.5359  -253.4310   492.3891 H6            1 RES     
   24202 H6        -337.6801  -251.6624   492.0831 H6            1 RES     
   24203 H6        -336.3207  -251.8205   490.1143 H6            1 RES     
   24204 H6        -335.7007  -253.4402   490.5133 H6            1 RES     
   24205 H6        -337.2855  -253.3831   488.6174 H6            1 RES     
   24206 H6        -337.8851  -254.3440   490.0246 H6            1 RES     
   24207 H6        -339.2418  -252.3537   490.7523 H6            1 RES     
   24208 H6        -338.7575  -251.4567   489.2661 H6            1 RES     
   24209 H6        -339.8991  -253.2335   487.8921 H6            1 RES     
   24210 H6        -340.1381  -254.2210   489.3941 H6            1 RES     
   24211 H6        -341.3745  -251.5036   488.8179 H6            1 RES     
   24212 H6        -341.4863  -252.3754   490.4178 H6            1 RES     
   24213 H6        -342.5725  -253.3163   487.7156 H6            1 RES     
   24214 H6        -343.5106  -252.7033   489.1411 H6            1 RES     
   24215 H6        -342.6068  -254.2617   489.2717 H6            1 RES     
   24216 H6        -334.2091  -250.7313   494.7863 H6            1 RES     
   24217 H6        -333.1372  -250.1476   493.4780 H6            1 RES     
   24218 H6        -332.0487  -252.2759   493.1294 H6            1 RES     
   24219 H6        -331.8656  -251.5812   494.7239 H6            1 RES     
   24220 H6        -333.4414  -254.1525   494.1350 H6            1 RES     
   24221 H6        -331.8635  -253.9183   494.9348 H6            1 RES     
   24222 H6        -334.5957  -252.9739   495.9209 H6            1 RES     
   24223 H6        -333.0372  -252.4825   496.7091 H6            1 RES     
   24224 H6        -332.5097  -254.7660   497.3678 H6            1 RES     
   24225 H6        -333.8526  -255.4323   496.3814 H6            1 RES     
   24226 H6        -334.5422  -255.4214   498.7392 H6            1 RES     
   24227 H6        -335.5533  -254.3665   497.7181 H6            1 RES     
   24228 H6        -335.2263  -253.2392   499.8136 H6            1 RES     
   24229 H6        -334.3761  -252.3317   498.5555 H6            1 RES     
   24230 H6        -332.1817  -253.2944   499.3101 H6            1 RES     
   24231 H6        -333.0403  -252.3865   500.5952 H6            1 RES     
   24232 H6        -332.9003  -255.4658   500.3524 H6            1 RES     
   24233 H6        -331.9942  -254.4208   501.4929 H6            1 RES     
   24234 H6        -334.1401  -253.6764   502.5557 H6            1 RES     
   24235 H6        -335.0629  -254.7751   501.4495 H6            1 RES     
   24236 H6        -333.9096  -255.4638   502.6338 H6            1 RES     
   24237 C0        -349.1106  -240.8209   491.5257 C0            1 RES     
   24238 C0        -349.2264  -242.6600   491.6859 C0            1 RES     
   24239 C0        -349.0768  -243.0025   493.0238 C0            1 RES     
   24240 S1        -348.8378  -244.6718   493.3524 S1            1 RES     
   24241 C0        -348.8606  -245.3574   491.8409 C0            1 RES     
   24242 C0        -349.1238  -244.0901   490.9781 C0            1 RES     
   24243 C0        -348.5645  -241.8916   493.8269 C0            1 RES     
   24244 C0        -348.0576  -241.0844   492.6428 C0            1 RES     
   24245 C0        -346.7394  -241.3294   492.4098 C0            1 RES     
   24246 C0        -346.0955  -242.1053   493.3706 C0            1 RES     
   24247 S1        -347.1152  -242.5372   494.7541 S1            1 RES     
   24248 H2        -349.0927  -244.2245   489.9035 H2            1 RES     
   24249 H2        -346.2562  -241.1333   491.4666 H2            1 RES     
   24250 N3        -347.6563  -248.8975   493.2447 N3            1 RES     
   24251 C0        -347.9566  -247.6040   493.0522 C0            1 RES     
   24252 C0        -348.5388  -247.0211   491.8301 C0            1 RES     
   24253 C0        -348.7227  -248.1101   490.8480 C0            1 RES     
   24254 N3        -349.2337  -247.9570   489.5853 N3            1 RES     
   24255 S1        -349.2342  -249.5046   488.9688 S1            1 RES     
   24256 N3        -348.5936  -250.4177   490.1878 N3            1 RES     
   24257 C0        -348.3700  -249.5016   491.1395 C0            1 RES     
   24258 C0        -347.8308  -249.8985   492.3385 C0            1 RES     
   24259 H4        -347.7201  -246.9894   493.8921 H4            1 RES     
   24260 C5        -354.8796  -222.9694   496.4510 C5            1 RES     
   24261 C5        -354.6412  -224.4535   496.0521 C5            1 RES     
   24262 C5        -353.8788  -224.6292   494.6979 C5            1 RES     
   24263 C5        -353.2989  -226.0802   494.3281 C5            1 RES     
   24264 C5        -354.2572  -227.2601   493.8636 C5            1 RES     
   24265 C5        -353.7493  -228.8395   493.7071 C5            1 RES     
   24266 C5        -352.8387  -229.5008   492.4958 C5            1 RES     
   24267 C5        -352.5852  -231.1876   492.0831 C5            1 RES     
   24268 C5        -351.4762  -232.3804   492.5906 C5            1 RES     
   24269 C5        -351.1431  -234.1361   492.3656 C5            1 RES     
   24270 C5        -350.2797  -235.2186   491.2442 C5            1 RES     
   24271 C5        -350.3738  -234.2570   489.9251 C5            1 RES     
   24272 C5        -351.7810  -233.7175   489.3979 C5            1 RES     
   24273 C5        -351.7294  -232.4151   488.4871 C5            1 RES     
   24274 C5        -353.0912  -231.9863   487.8180 C5            1 RES     
   24275 C5        -353.7993  -233.1240   487.0503 C5            1 RES     
   24276 C5        -352.9138  -233.8198   485.9882 C5            1 RES     
   24277 C5        -353.3283  -233.6199   484.5258 C5            1 RES     
   24278 C5        -353.3291  -232.1697   484.0550 C5            1 RES     
   24279 C5        -349.6475  -237.0860   491.1254 C5            1 RES     
   24280 C0        -349.8685  -238.9715   491.6023 C0            1 RES     
   24281 C5        -351.4146  -239.0747   491.6485 C5            1 RES     
   24282 C5        -352.1959  -237.8437   492.3191 C5            1 RES     
   24283 C5        -352.2983  -237.9494   493.8504 C5            1 RES     
   24284 C5        -350.9943  -238.2184   494.6364 C5            1 RES     
   24285 C5        -349.8260  -237.2468   494.3608 C5            1 RES     
   24286 C5        -348.6903  -237.3133   495.3735 C5            1 RES     
   24287 C5        -348.1410  -238.7306   495.5399 C5            1 RES     
   24288 C5        -347.1897  -238.7992   496.7301 C5            1 RES     
   24289 C5        -346.9155  -240.2581   497.0694 C5            1 RES     
   24290 C5        -346.1472  -240.4235   498.3606 C5            1 RES     
   24291 C5        -353.5829  -237.6084   491.6295 C5            1 RES     
   24292 C5        -354.3652  -236.2446   491.7513 C5            1 RES     
   24293 C5        -355.1253  -235.8186   493.0368 C5            1 RES     
   24294 C5        -356.1118  -236.8927   493.5129 C5            1 RES     
   24295 C5        -357.1053  -236.3930   494.5861 C5            1 RES     
   24296 C5        -357.8167  -237.5643   495.2988 C5            1 RES     
   24297 C5        -358.5960  -238.5382   494.3904 C5            1 RES     
   24298 C5        -359.8402  -237.9480   493.7010 C5            1 RES     
   24299 C5        -360.9404  -237.4520   494.6602 C5            1 RES     
   24300 C5        -361.4889  -238.5493   495.5767 C5            1 RES     
   24301 H6        -353.9196  -222.4168   496.5692 H6            1 RES     
   24302 H6        -355.5069  -222.4237   495.7143 H6            1 RES     
   24303 H6        -355.3990  -222.9081   497.4375 H6            1 RES     
   24304 H6        -354.0353  -224.8918   496.8723 H6            1 RES     
   24305 H6        -355.6238  -224.9659   496.0127 H6            1 RES     
   24306 H6        -354.4912  -224.1934   493.8764 H6            1 RES     
   24307 H6        -352.9899  -223.9626   494.8056 H6            1 RES     
   24308 H6        -352.7286  -226.4067   495.2193 H6            1 RES     
   24309 H6        -352.5881  -225.9111   493.4945 H6            1 RES     
   24310 H6        -354.7941  -226.9160   492.9483 H6            1 RES     
   24311 H6        -355.0357  -227.2650   494.6638 H6            1 RES     
   24312 H6        -354.7276  -229.3625   493.6226 H6            1 RES     
   24313 H6        -353.3126  -229.1077   494.6845 H6            1 RES     
   24314 H6        -353.4110  -229.0974   491.6234 H6            1 RES     
   24315 H6        -351.8761  -228.9502   492.4672 H6            1 RES     
   24316 H6        -352.3780  -231.0594   491.0003 H6            1 RES     
   24317 H6        -353.6201  -231.5890   492.1331 H6            1 RES     
   24318 H6        -350.4962  -231.8716   492.4828 H6            1 RES     
   24319 H6        -351.7290  -232.3415   493.6697 H6            1 RES     
   24320 H6        -352.1328  -234.5726   492.5314 H6            1 RES     
   24321 H6        -350.5844  -234.3121   493.2942 H6            1 RES     
   24322 H6        -349.2537  -234.8728   491.5026 H6            1 RES     
   24323 H6        -349.7456  -234.6086   489.0823 H6            1 RES     
   24324 H6        -349.8902  -233.2927   490.2341 H6            1 RES     
   24325 H6        -352.4548  -233.4379   490.2318 H6            1 RES     
   24326 H6        -352.2451  -234.5473   488.8427 H6            1 RES     
   24327 H6        -350.9735  -232.5361   487.6934 H6            1 RES     
   24328 H6        -351.3724  -231.5313   489.0657 H6            1 RES     
   24329 H6        -352.9210  -231.1293   487.1222 H6            1 RES     
   24330 H6        -353.8029  -231.6174   488.5926 H6            1 RES     
   24331 H6        -354.0823  -233.8705   487.8181 H6            1 RES     
   24332 H6        -354.7707  -232.7975   486.6123 H6            1 RES     
   24333 H6        -351.8477  -233.5596   486.0958 H6            1 RES     
   24334 H6        -352.9773  -234.9121   486.1753 H6            1 RES     
   24335 H6        -354.3383  -234.0528   484.3673 H6            1 RES     
   24336 H6        -352.6046  -234.1897   483.9014 H6            1 RES     
   24337 H6        -352.3319  -231.7046   484.1975 H6            1 RES     
   24338 H6        -353.5789  -232.1511   482.9714 H6            1 RES     
   24339 H6        -354.0983  -231.5829   484.5975 H6            1 RES     
   24340 H6        -348.5991  -236.9441   491.4741 H6            1 RES     
   24341 H6        -349.4608  -237.1509   490.0326 H6            1 RES     
   24342 H6        -351.6763  -239.1365   490.5747 H6            1 RES     
   24343 H6        -351.7111  -240.0229   492.1385 H6            1 RES     
   24344 H6        -351.7085  -236.9056   492.1304 H6            1 RES     
   24345 H6        -352.7270  -237.0034   494.2259 H6            1 RES     
   24346 H6        -353.0002  -238.7678   494.0989 H6            1 RES     
   24347 H6        -351.2653  -238.1531   495.7107 H6            1 RES     
   24348 H6        -350.6674  -239.2571   494.4199 H6            1 RES     
   24349 H6        -349.3575  -237.5082   493.4326 H6            1 RES     
   24350 H6        -350.1881  -236.2071   494.3181 H6            1 RES     
   24351 H6        -347.8670  -236.6333   495.0530 H6            1 RES     
   24352 H6        -349.0959  -236.9505   496.3385 H6            1 RES     
   24353 H6        -348.9878  -239.4013   495.7786 H6            1 RES     
   24354 H6        -347.6545  -239.0936   494.6057 H6            1 RES     
   24355 H6        -346.2466  -238.2491   496.5168 H6            1 RES     
   24356 H6        -347.6951  -238.3377   497.6041 H6            1 RES     
   24357 H6        -346.3179  -240.6889   496.2550 H6            1 RES     
   24358 H6        -347.8846  -240.7995   497.1852 H6            1 RES     
   24359 H6        -345.1460  -239.9596   498.2626 H6            1 RES     
   24360 H6        -346.0363  -241.5093   498.5689 H6            1 RES     
   24361 H6        -346.7109  -239.9547   499.1941 H6            1 RES     
   24362 H6        -354.2561  -238.4611   491.8296 H6            1 RES     
   24363 H6        -353.3426  -237.6188   490.5421 H6            1 RES     
   24364 H6        -353.7258  -235.4029   491.4243 H6            1 RES     
   24365 H6        -355.1583  -236.2996   490.9743 H6            1 RES     
   24366 H6        -354.4392  -235.5369   493.8626 H6            1 RES     
   24367 H6        -355.7030  -234.8987   492.7764 H6            1 RES     
   24368 H6        -355.5007  -237.7234   493.9207 H6            1 RES     
   24369 H6        -356.7084  -237.2568   492.6497 H6            1 RES     
   24370 H6        -357.8449  -235.6944   494.1309 H6            1 RES     
   24371 H6        -356.5571  -235.8307   495.3732 H6            1 RES     
   24372 H6        -358.4859  -237.1710   496.0930 H6            1 RES     
   24373 H6        -357.0267  -238.1553   495.8104 H6            1 RES     
   24374 H6        -358.9079  -239.4100   495.0008 H6            1 RES     
   24375 H6        -357.9136  -238.9423   493.6146 H6            1 RES     
   24376 H6        -359.5337  -237.1100   493.0401 H6            1 RES     
   24377 H6        -360.2786  -238.7403   493.0542 H6            1 RES     
   24378 H6        -360.5646  -236.6104   495.2774 H6            1 RES     
   24379 H6        -361.7827  -237.0683   494.0444 H6            1 RES     
   24380 H6        -361.8895  -239.3939   494.9764 H6            1 RES     
   24381 H6        -360.7050  -238.9262   496.2651 H6            1 RES     
   24382 H6        -362.3105  -238.1357   496.1986 H6            1 RES     
   24383 C0        -344.4704  -253.7157   493.3930 C0            1 RES     
   24384 C0        -344.8520  -252.6915   494.8853 C0            1 RES     
   24385 C0        -346.1907  -252.8620   495.2142 C0            1 RES     
   24386 S1        -346.8284  -251.7642   496.3717 S1            1 RES     
   24387 C0        -345.5281  -250.7941   496.7227 C0            1 RES     
   24388 C0        -344.4490  -251.4591   495.8210 C0            1 RES     
   24389 C0        -346.9478  -253.5072   494.1408 C0            1 RES     
   24390 C0        -345.9148  -253.2378   493.0587 C0            1 RES     
   24391 C0        -346.2049  -252.0968   492.3761 C0            1 RES     
   24392 C0        -347.4363  -251.5178   492.6734 C0            1 RES     
   24393 S1        -348.4149  -252.4477   493.8214 S1            1 RES     
   24394 H2        -343.4887  -250.9601   495.7720 H2            1 RES     
   24395 H2        -345.4771  -251.5456   491.8035 H2            1 RES     
   24396 N3        -347.7805  -248.2476   498.8194 N3            1 RES     
   24397 C0        -347.3028  -249.1997   498.0034 C0            1 RES     
   24398 C0        -345.8812  -249.5191   497.7817 C0            1 RES     
   24399 C0        -345.0723  -248.5977   498.6071 C0            1 RES     
   24400 N3        -343.7028  -248.5821   498.6619 N3            1 RES     
   24401 S1        -343.3651  -247.3793   499.7640 S1            1 RES     
   24402 N3        -344.8539  -246.8103   500.1992 N3            1 RES     
   24403 C0        -345.6746  -247.5842   499.4763 C0            1 RES     
   24404 C0        -347.0319  -247.4032   499.5811 C0            1 RES     
   24405 H4        -348.0700  -249.7334   497.4879 H4            1 RES     
   24406 C5        -344.2968  -270.7374   484.0955 C5            1 RES     
   24407 C5        -344.2352  -269.4910   485.0235 C5            1 RES     
   24408 C5        -343.2829  -268.3638   484.5053 C5            1 RES     
   24409 C5        -343.3647  -266.9156   485.1941 C5            1 RES     
   24410 C5        -342.7719  -266.6554   486.6456 C5            1 RES     
   24411 C5        -343.0440  -265.2532   487.5040 C5            1 RES     
   24412 C5        -342.3488  -263.7701   487.2783 C5            1 RES     
   24413 C5        -342.3102  -262.3802   488.3491 C5            1 RES     
   24414 C5        -343.3508  -261.0543   488.6115 C5            1 RES     
   24415 C5        -343.5240  -259.6352   489.7070 C5            1 RES     
   24416 C5        -342.9579  -257.9512   489.8426 C5            1 RES     
   24417 C5        -341.5636  -258.1407   489.0098 C5            1 RES     
   24418 C5        -340.4965  -259.2506   489.4321 C5            1 RES     
   24419 C5        -339.4798  -259.7051   488.2971 C5            1 RES     
   24420 C5        -338.3143  -260.6622   488.7573 C5            1 RES     
   24421 C5        -337.5244  -260.1468   489.9802 C5            1 RES     
   24422 C5        -336.9631  -258.7137   489.8149 C5            1 RES     
   24423 C5        -335.4365  -258.5886   489.7482 C5            1 RES     
   24424 C5        -334.7851  -259.3333   488.5880 C5            1 RES     
   24425 C5        -343.3521  -256.2959   490.8455 C5            1 RES     
   24426 C0        -343.9954  -255.4301   492.4789 C0            1 RES     
   24427 C5        -343.5039  -256.4386   493.5487 C5            1 RES     
   24428 C5        -343.6611  -257.9955   493.1926 C5            1 RES     
   24429 C5        -345.0534  -258.5585   493.5257 C5            1 RES     
   24430 C5        -346.2822  -257.7846   492.9951 C5            1 RES     
   24431 C5        -346.2979  -257.4992   491.4775 C5            1 RES     
   24432 C5        -347.6459  -257.0510   490.9279 C5            1 RES     
   24433 C5        -348.2065  -255.8411   491.6761 C5            1 RES     
   24434 C5        -349.6531  -255.5826   491.2674 C5            1 RES     
   24435 C5        -350.2816  -254.5976   492.2438 C5            1 RES     
   24436 C5        -351.7707  -254.4400   492.0378 C5            1 RES     
   24437 C5        -342.4966  -258.8401   493.8136 C5            1 RES     
   24438 C5        -342.1272  -260.2809   493.2898 C5            1 RES     
   24439 C5        -342.9796  -261.5396   493.6078 C5            1 RES     
   24440 C5        -343.2288  -261.7094   495.1120 C5            1 RES     
   24441 C5        -343.7912  -263.0965   495.4965 C5            1 RES     
   24442 C5        -344.3711  -263.1034   496.9282 C5            1 RES     
   24443 C5        -343.4015  -262.6887   498.0547 C5            1 RES     
   24444 C5        -342.2349  -263.6599   498.3147 C5            1 RES     
   24445 C5        -342.6549  -265.0759   498.7562 C5            1 RES     
   24446 C5        -343.4695  -265.0928   500.0527 C5            1 RES     
   24447 H6        -344.6644  -270.4736   483.0776 H6            1 RES     
   24448 H6        -343.3125  -271.2416   483.9902 H6            1 RES     
   24449 H6        -345.0133  -271.4918   484.5007 H6            1 RES     
   24450 H6        -345.2729  -269.0999   485.0709 H6            1 RES     
   24451 H6        -343.9263  -269.8246   486.0348 H6            1 RES     
   24452 H6        -342.2421  -268.7574   484.4638 H6            1 RES     
   24453 H6        -343.5986  -268.2167   483.4448 H6            1 RES     
   24454 H6        -344.4385  -266.6453   485.1878 H6            1 RES     
   24455 H6        -342.8229  -266.2318   484.5102 H6            1 RES     
   24456 H6        -341.6850  -266.9051   486.6142 H6            1 RES     
   24457 H6        -343.2342  -267.4769   487.2436 H6            1 RES     
   24458 H6        -342.6965  -265.5606   488.5152 H6            1 RES     
   24459 H6        -344.1411  -265.1426   487.5492 H6            1 RES     
   24460 H6        -341.2801  -264.0972   487.2295 H6            1 RES     
   24461 H6        -342.5822  -263.4495   486.2422 H6            1 RES     
   24462 H6        -341.3656  -261.9238   487.9870 H6            1 RES     
   24463 H6        -342.0485  -262.8524   489.3203 H6            1 RES     
   24464 H6        -343.5236  -260.6665   487.5864 H6            1 RES     
   24465 H6        -344.2509  -261.6462   488.8751 H6            1 RES     
   24466 H6        -343.3905  -260.0965   490.6902 H6            1 RES     
   24467 H6        -344.6057  -259.4816   489.5982 H6            1 RES     
   24468 H6        -343.5093  -257.5628   488.9571 H6            1 RES     
   24469 H6        -341.0618  -257.1810   488.7736 H6            1 RES     
   24470 H6        -341.8766  -258.5323   488.0058 H6            1 RES     
   24471 H6        -340.9847  -260.1927   489.7511 H6            1 RES     
   24472 H6        -339.9433  -258.8406   490.2913 H6            1 RES     
   24473 H6        -339.0342  -258.8218   487.8101 H6            1 RES     
   24474 H6        -340.0084  -260.2309   487.4681 H6            1 RES     
   24475 H6        -337.6047  -260.8330   487.9118 H6            1 RES     
   24476 H6        -338.7210  -261.6650   489.0252 H6            1 RES     
   24477 H6        -338.2438  -260.1494   490.8224 H6            1 RES     
   24478 H6        -336.7263  -260.8570   490.2976 H6            1 RES     
   24479 H6        -337.4024  -258.1887   488.9505 H6            1 RES     
   24480 H6        -337.2764  -258.1354   490.7092 H6            1 RES     
   24481 H6        -334.9960  -258.9476   490.7019 H6            1 RES     
   24482 H6        -335.2028  -257.5057   489.6438 H6            1 RES     
   24483 H6        -335.2015  -258.9975   487.6159 H6            1 RES     
   24484 H6        -333.6938  -259.1196   488.6005 H6            1 RES     
   24485 H6        -334.9246  -260.4281   488.6985 H6            1 RES     
   24486 H6        -344.0252  -255.7963   490.1118 H6            1 RES     
   24487 H6        -342.4198  -255.7277   490.6420 H6            1 RES     
   24488 H6        -342.4294  -256.1858   493.6312 H6            1 RES     
   24489 H6        -343.9924  -256.2213   494.5189 H6            1 RES     
   24490 H6        -343.5200  -258.1860   492.1452 H6            1 RES     
   24491 H6        -345.1062  -259.5865   493.1254 H6            1 RES     
   24492 H6        -345.1555  -258.6121   494.6261 H6            1 RES     
   24493 H6        -347.1674  -258.4039   493.2496 H6            1 RES     
   24494 H6        -346.3540  -256.8258   493.5502 H6            1 RES     
   24495 H6        -345.6471  -256.6744   491.2641 H6            1 RES     
   24496 H6        -345.9745  -258.3879   490.9123 H6            1 RES     
   24497 H6        -347.5412  -256.8008   489.8466 H6            1 RES     
   24498 H6        -348.3379  -257.9103   491.0286 H6            1 RES     
   24499 H6        -348.2261  -256.0834   492.7553 H6            1 RES     
   24500 H6        -347.5717  -254.9376   491.5277 H6            1 RES     
   24501 H6        -349.7092  -255.2075   490.2216 H6            1 RES     
   24502 H6        -350.2109  -256.5391   491.3456 H6            1 RES     
   24503 H6        -349.8069  -253.6192   492.0909 H6            1 RES     
   24504 H6        -350.1249  -254.9603   493.2876 H6            1 RES     
   24505 H6        -351.9668  -254.0129   491.0346 H6            1 RES     
   24506 H6        -352.1646  -253.7544   492.8184 H6            1 RES     
   24507 H6        -352.2694  -255.4262   492.1426 H6            1 RES     
   24508 H6        -342.5695  -258.8346   494.9158 H6            1 RES     
   24509 H6        -341.5803  -258.2717   493.5352 H6            1 RES     
   24510 H6        -341.9269  -260.2561   492.2020 H6            1 RES     
   24511 H6        -341.1366  -260.5042   493.7422 H6            1 RES     
   24512 H6        -343.9432  -261.5505   493.0571 H6            1 RES     
   24513 H6        -342.3965  -262.4204   493.2444 H6            1 RES     
   24514 H6        -343.9463  -260.9159   495.4041 H6            1 RES     
   24515 H6        -342.2747  -261.5715   495.6636 H6            1 RES     
   24516 H6        -343.0039  -263.8770   495.3810 H6            1 RES     
   24517 H6        -344.6282  -263.3648   494.8157 H6            1 RES     
   24518 H6        -344.8072  -264.0997   497.1529 H6            1 RES     
   24519 H6        -345.2121  -262.3771   496.9368 H6            1 RES     
   24520 H6        -343.9841  -262.5743   498.9915 H6            1 RES     
   24521 H6        -342.9885  -261.6833   497.8321 H6            1 RES     
   24522 H6        -341.6089  -263.7382   497.4010 H6            1 RES     
   24523 H6        -341.6008  -263.2225   499.1177 H6            1 RES     
   24524 H6        -343.2322  -265.5764   497.9520 H6            1 RES     
   24525 H6        -341.7300  -265.6690   498.9261 H6            1 RES     
   24526 H6        -342.8996  -264.6135   500.8771 H6            1 RES     
   24527 H6        -344.4396  -264.5705   499.9238 H6            1 RES     
   24528 H6        -343.6896  -266.1430   500.3381 H6            1 RES     
   24529 C0        -349.7696  -243.0802   500.4712 C0            1 RES     
   24530 C0        -350.8578  -244.5336   500.1181 C0            1 RES     
   24531 C0        -350.7110  -245.4613   501.1415 C0            1 RES     
   24532 S1        -351.3884  -247.0140   500.8547 S1            1 RES     
   24533 C0        -352.0294  -246.8663   499.3307 C0            1 RES     
   24534 C0        -351.6803  -245.3789   499.0383 C0            1 RES     
   24535 C0        -349.5480  -245.1787   501.9836 C0            1 RES     
   24536 C0        -348.8764  -244.2472   500.9877 C0            1 RES     
   24537 C0        -347.9730  -244.9168   500.2213 C0            1 RES     
   24538 C0        -347.7231  -246.2329   500.6023 C0            1 RES     
   24539 S1        -348.5735  -246.7341   502.0740 S1            1 RES     
   24540 H2        -351.9018  -245.0199   498.0405 H2            1 RES     
   24541 H2        -347.6209  -244.5582   499.2679 H2            1 RES     
   24542 N3        -352.7829  -250.7812   499.0864 N3            1 RES     
   24543 C0        -352.3420  -249.5549   499.4062 C0            1 RES     
   24544 C0        -352.6905  -248.3003   498.7157 C0            1 RES     
   24545 C0        -353.6018  -248.6313   497.6002 C0            1 RES     
   24546 N3        -354.1368  -247.7251   496.7218 N3            1 RES     
   24547 S1        -355.0939  -248.6570   495.7265 S1            1 RES     
   24548 N3        -354.8813  -250.1933   496.2962 N3            1 RES     
   24549 C0        -354.0383  -250.0011   497.3196 C0            1 RES     
   24550 C0        -353.6256  -251.0815   498.0601 C0            1 RES     
   24551 H4        -351.6735  -249.5537   500.2382 H4            1 RES     
   24552 C5        -343.7965  -228.8088   512.1699 C5            1 RES     
   24553 C5        -344.4884  -229.8934   511.2962 C5            1 RES     
   24554 C5        -344.1802  -229.7652   509.7682 C5            1 RES     
   24555 C5        -344.5702  -230.9878   508.8031 C5            1 RES     
   24556 C5        -346.0814  -231.2776   508.4049 C5            1 RES     
   24557 C5        -346.5671  -232.6633   507.6168 C5            1 RES     
   24558 C5        -346.3843  -233.0425   506.0179 C5            1 RES     
   24559 C5        -347.1783  -234.2857   505.0672 C5            1 RES     
   24560 C5        -346.8524  -235.9307   504.7542 C5            1 RES     
   24561 C5        -347.5896  -237.3461   503.9193 C5            1 RES     
   24562 C5        -347.6643  -238.0726   502.2940 C5            1 RES     
   24563 C5        -347.4197  -236.6953   501.4474 C5            1 RES     
   24564 C5        -348.3545  -235.4191   501.6629 C5            1 RES     
   24565 C5        -347.7365  -234.0221   501.2216 C5            1 RES     
   24566 C5        -348.7183  -232.7890   501.2628 C5            1 RES     
   24567 C5        -350.0504  -233.0218   500.5167 C5            1 RES     
   24568 C5        -349.8832  -233.4831   499.0486 C5            1 RES     
   24569 C5        -350.3455  -232.4942   497.9721 C5            1 RES     
   24570 C5        -349.6178  -231.1543   497.9812 C5            1 RES     
   24571 C5        -348.2021  -239.7544   501.4090 C5            1 RES     
   24572 C0        -349.3512  -241.3383   501.3605 C0            1 RES     
   24573 C5        -350.6638  -240.7564   501.9451 C5            1 RES     
   24574 C5        -350.5120  -239.7500   503.1860 C5            1 RES     
   24575 C5        -350.4086  -240.4677   504.5427 C5            1 RES     
   24576 C5        -349.3667  -241.6026   504.6726 C5            1 RES     
   24577 C5        -347.9181  -241.2389   504.2798 C5            1 RES     
   24578 C5        -346.8650  -242.2424   504.7311 C5            1 RES     
   24579 C5        -347.1753  -243.6636   504.2597 C5            1 RES     
   24580 C5        -346.2455  -244.6662   504.9354 C5            1 RES     
   24581 C5        -346.7758  -246.0751   504.7064 C5            1 RES     
   24582 C5        -346.0329  -247.1172   505.5107 C5            1 RES     
   24583 C5        -351.6250  -238.6475   503.1620 C5            1 RES     
   24584 C5        -351.4883  -237.2933   503.9583 C5            1 RES     
   24585 C5        -351.6669  -237.1969   505.4980 C5            1 RES     
   24586 C5        -352.9916  -237.8099   505.9701 C5            1 RES     
   24587 C5        -353.3539  -237.4587   507.4309 C5            1 RES     
   24588 C5        -354.4699  -238.3741   507.9810 C5            1 RES     
   24589 C5        -355.7919  -238.3852   507.1852 C5            1 RES     
   24590 C5        -356.5915  -237.0693   507.2120 C5            1 RES     
   24591 C5        -357.0613  -236.6232   508.6109 C5            1 RES     
   24592 C5        -357.9705  -237.6434   509.3017 C5            1 RES     
   24593 H6        -342.6872  -228.8546   512.0791 H6            1 RES     
   24594 H6        -344.1245  -227.7790   511.9130 H6            1 RES     
   24595 H6        -344.0285  -228.9701   513.2501 H6            1 RES     
   24596 H6        -344.1049  -230.8671   511.6661 H6            1 RES     
   24597 H6        -345.5812  -229.8412   511.4767 H6            1 RES     
   24598 H6        -344.5707  -228.7899   509.3990 H6            1 RES     
   24599 H6        -343.0675  -229.6861   509.7278 H6            1 RES     
   24600 H6        -344.1425  -231.8902   509.2813 H6            1 RES     
   24601 H6        -344.0296  -230.7994   507.8539 H6            1 RES     
   24602 H6        -346.4760  -230.3655   507.8980 H6            1 RES     
   24603 H6        -346.5916  -231.2933   509.3977 H6            1 RES     
   24604 H6        -347.6696  -232.6013   507.7528 H6            1 RES     
   24605 H6        -346.2024  -233.4996   508.2378 H6            1 RES     
   24606 H6        -346.7679  -232.0876   505.5794 H6            1 RES     
   24607 H6        -345.2974  -233.0258   505.7961 H6            1 RES     
   24608 H6        -347.1117  -233.7960   504.0735 H6            1 RES     
   24609 H6        -348.2380  -234.1637   505.3783 H6            1 RES     
   24610 H6        -345.7872  -235.9190   504.4440 H6            1 RES     
   24611 H6        -346.8643  -236.2683   505.8105 H6            1 RES     
   24612 H6        -348.6132  -237.3228   504.3054 H6            1 RES     
   24613 H6        -347.0819  -238.1427   504.4788 H6            1 RES     
   24614 H6        -346.5932  -238.3711   502.2419 H6            1 RES     
   24615 H6        -347.2366  -236.8722   500.3685 H6            1 RES     
   24616 H6        -346.4406  -236.2947   501.8219 H6            1 RES     
   24617 H6        -348.6160  -235.2742   502.7298 H6            1 RES     
   24618 H6        -349.2825  -235.6141   501.1035 H6            1 RES     
   24619 H6        -347.3134  -234.0974   500.2060 H6            1 RES     
   24620 H6        -346.8622  -233.7481   501.8571 H6            1 RES     
   24621 H6        -348.2159  -231.8870   500.8368 H6            1 RES     
   24622 H6        -348.9709  -232.5314   502.3176 H6            1 RES     
   24623 H6        -350.5722  -233.8198   501.0804 H6            1 RES     
   24624 H6        -350.7331  -232.1436   500.5869 H6            1 RES     
   24625 H6        -348.8510  -233.7990   498.8236 H6            1 RES     
   24626 H6        -350.5105  -234.3895   498.9180 H6            1 RES     
   24627 H6        -351.4356  -232.3151   498.0809 H6            1 RES     
   24628 H6        -350.1704  -232.9804   496.9866 H6            1 RES     
   24629 H6        -348.5227  -231.2957   497.8723 H6            1 RES     
   24630 H6        -349.9852  -230.5480   497.1244 H6            1 RES     
   24631 H6        -349.8337  -230.5985   498.9164 H6            1 RES     
   24632 H6        -347.2113  -240.2619   501.3684 H6            1 RES     
   24633 H6        -348.2608  -239.4018   500.3576 H6            1 RES     
   24634 H6        -351.0839  -240.2117   501.0779 H6            1 RES     
   24635 H6        -351.3528  -241.5822   502.2101 H6            1 RES     
   24636 H6        -349.6241  -239.1503   503.1128 H6            1 RES     
   24637 H6        -350.1741  -239.7081   505.3092 H6            1 RES     
   24638 H6        -351.3956  -240.9060   504.7832 H6            1 RES     
   24639 H6        -349.3794  -241.9095   505.7391 H6            1 RES     
   24640 H6        -349.7101  -242.4603   504.0570 H6            1 RES     
   24641 H6        -347.8293  -241.2370   503.2113 H6            1 RES     
   24642 H6        -347.6444  -240.2497   504.6803 H6            1 RES     
   24643 H6        -345.8671  -241.9336   504.3416 H6            1 RES     
   24644 H6        -346.8404  -242.2094   505.8381 H6            1 RES     
   24645 H6        -348.2003  -243.9184   504.5885 H6            1 RES     
   24646 H6        -347.1290  -243.7461   503.1496 H6            1 RES     
   24647 H6        -345.2045  -244.5592   504.5578 H6            1 RES     
   24648 H6        -346.2623  -244.4718   506.0281 H6            1 RES     
   24649 H6        -346.6572  -246.3128   503.6407 H6            1 RES     
   24650 H6        -347.8488  -246.1205   505.0100 H6            1 RES     
   24651 H6        -344.9738  -247.1543   505.1880 H6            1 RES     
   24652 H6        -346.5107  -248.1050   505.3358 H6            1 RES     
   24653 H6        -346.0998  -246.8733   506.5915 H6            1 RES     
   24654 H6        -352.6153  -239.1037   503.3392 H6            1 RES     
   24655 H6        -351.6089  -238.2785   502.1114 H6            1 RES     
   24656 H6        -350.5521  -236.7743   503.6786 H6            1 RES     
   24657 H6        -352.2912  -236.6404   503.5520 H6            1 RES     
   24658 H6        -350.8180  -237.6474   506.0533 H6            1 RES     
   24659 H6        -351.6705  -236.1091   505.7518 H6            1 RES     
   24660 H6        -352.8876  -238.9085   505.8599 H6            1 RES     
   24661 H6        -353.8191  -237.4465   505.3245 H6            1 RES     
   24662 H6        -353.6437  -236.3853   507.5085 H6            1 RES     
   24663 H6        -352.4683  -237.6124   508.0853 H6            1 RES     
   24664 H6        -354.6711  -238.1250   509.0444 H6            1 RES     
   24665 H6        -354.0702  -239.4110   507.9658 H6            1 RES     
   24666 H6        -356.4320  -239.1982   507.5843 H6            1 RES     
   24667 H6        -355.5830  -238.6567   506.1300 H6            1 RES     
   24668 H6        -355.9826  -236.2579   506.7607 H6            1 RES     
   24669 H6        -357.4924  -237.2057   506.5733 H6            1 RES     
   24670 H6        -356.1889  -236.4076   509.2612 H6            1 RES     
   24671 H6        -357.6353  -235.6784   508.4931 H6            1 RES     
   24672 H6        -358.8621  -237.8580   508.6747 H6            1 RES     
   24673 H6        -357.4288  -238.5893   509.5072 H6            1 RES     
   24674 H6        -358.3125  -237.2346   510.2758 H6            1 RES     
   24675 C0        -352.8278  -256.0093   496.6263 C0            1 RES     
   24676 C0        -352.3324  -255.7058   498.3824 C0            1 RES     
   24677 C0        -353.4676  -255.3936   499.1197 C0            1 RES     
   24678 S1        -353.1943  -254.7708   500.6974 S1            1 RES     
   24679 C0        -351.5382  -254.7451   500.8073 C0            1 RES     
   24680 C0        -351.1702  -255.3392   499.4176 C0            1 RES     
   24681 C0        -354.6157  -255.0850   498.2663 C0            1 RES     
   24682 C0        -353.7962  -254.8503   497.0077 C0            1 RES     
   24683 C0        -353.5102  -253.5296   496.8472 C0            1 RES     
   24684 C0        -354.1473  -252.6666   497.7356 C0            1 RES     
   24685 S1        -355.2778  -253.4694   498.8391 S1            1 RES     
   24686 H2        -350.1171  -255.3526   499.1636 H2            1 RES     
   24687 H2        -352.7020  -253.1670   496.2333 H2            1 RES     
   24688 N3        -351.6301  -252.6975   504.2355 N3            1 RES     
   24689 C0        -351.8985  -253.2878   503.0608 C0            1 RES     
   24690 C0        -350.9501  -254.0661   502.2442 C0            1 RES     
   24691 C0        -349.6464  -254.0721   502.9405 C0            1 RES     
   24692 N3        -348.5104  -254.6892   502.4848 N3            1 RES     
   24693 S1        -347.3911  -254.3907   503.6821 S1            1 RES     
   24694 N3        -348.2219  -253.4831   504.7848 N3            1 RES     
   24695 C0        -349.4371  -253.4025   504.2263 C0            1 RES     
   24696 C0        -350.4285  -252.7086   504.8756 C0            1 RES     
   24697 H4        -352.9036  -253.1358   502.7355 H4            1 RES     
   24698 C5        -363.6121  -265.2197   483.3945 C5            1 RES     
   24699 C5        -362.7221  -264.6880   484.5537 C5            1 RES     
   24700 C5        -361.4026  -263.9997   484.0727 C5            1 RES     
   24701 C5        -360.5562  -263.1410   485.1332 C5            1 RES     
   24702 C5        -359.6950  -263.8452   486.2684 C5            1 RES     
   24703 C5        -359.0024  -263.0137   487.5356 C5            1 RES     
   24704 C5        -357.6487  -262.0646   487.5118 C5            1 RES     
   24705 C5        -356.6751  -261.4744   488.8473 C5            1 RES     
   24706 C5        -356.7480  -260.0979   489.8524 C5            1 RES     
   24707 C5        -355.9271  -259.4024   491.2968 C5            1 RES     
   24708 C5        -354.5096  -258.4003   491.6982 C5            1 RES     
   24709 C5        -353.6094  -258.7936   490.3910 C5            1 RES     
   24710 C5        -353.2854  -260.3176   490.0427 C5            1 RES     
   24711 C5        -352.8890  -260.6164   488.5321 C5            1 RES     
   24712 C5        -352.3938  -262.0816   488.2252 C5            1 RES     
   24713 C5        -351.2668  -262.5723   489.1602 C5            1 RES     
   24714 C5        -350.0406  -261.6299   489.2248 C5            1 RES     
   24715 C5        -348.7352  -262.1770   488.6357 C5            1 RES     
   24716 C5        -348.8019  -262.5294   487.1537 C5            1 RES     
   24717 C5        -353.7532  -257.3818   493.2120 C5            1 RES     
   24718 C0        -353.5367  -257.1489   495.1434 C0            1 RES     
   24719 C5        -353.5227  -258.6275   495.6091 C5            1 RES     
   24720 C5        -354.5712  -259.6131   494.8988 C5            1 RES     
   24721 C5        -355.9670  -259.5851   495.5448 C5            1 RES     
   24722 C5        -356.6268  -258.2034   495.7596 C5            1 RES     
   24723 C5        -356.7248  -257.2995   494.5114 C5            1 RES     
   24724 C5        -357.6654  -256.1106   494.6585 C5            1 RES     
   24725 C5        -357.3327  -255.2525   495.8796 C5            1 RES     
   24726 C5        -358.4363  -254.2306   496.1321 C5            1 RES     
   24727 C5        -358.2471  -253.6193   497.5138 C5            1 RES     
   24728 C5        -359.4090  -252.7472   497.9312 C5            1 RES     
   24729 C5        -353.9887  -261.0617   494.7668 C5            1 RES     
   24730 C5        -354.5697  -262.1149   493.7471 C5            1 RES     
   24731 C5        -355.9125  -262.8608   493.9761 C5            1 RES     
   24732 C5        -355.9689  -263.5516   495.3447 C5            1 RES     
   24733 C5        -357.1354  -264.5552   495.4873 C5            1 RES     
   24734 C5        -357.3833  -264.9408   496.9623 C5            1 RES     
   24735 C5        -356.1808  -265.5465   497.7163 C5            1 RES     
   24736 C5        -355.7247  -266.9342   497.2284 C5            1 RES     
   24737 C5        -356.7818  -268.0485   497.3598 C5            1 RES     
   24738 C5        -357.2486  -268.2781   498.8000 C5            1 RES     
   24739 H6        -363.9294  -264.3992   482.7110 H6            1 RES     
   24740 H6        -363.1046  -266.0005   482.7889 H6            1 RES     
   24741 H6        -364.5504  -265.6713   483.7973 H6            1 RES     
   24742 H6        -363.3452  -263.9459   485.0951 H6            1 RES     
   24743 H6        -362.4925  -265.5338   485.2328 H6            1 RES     
   24744 H6        -360.7774  -264.7477   483.5346 H6            1 RES     
   24745 H6        -361.7490  -263.2743   483.2982 H6            1 RES     
   24746 H6        -361.2844  -262.4533   485.6054 H6            1 RES     
   24747 H6        -359.8443  -262.5435   484.5291 H6            1 RES     
   24748 H6        -358.9508  -264.5058   485.7642 H6            1 RES     
   24749 H6        -360.4321  -264.5470   486.7271 H6            1 RES     
   24750 H6        -358.7268  -263.8562   488.2080 H6            1 RES     
   24751 H6        -359.8299  -262.4630   488.0151 H6            1 RES     
   24752 H6        -356.9651  -262.7698   486.9764 H6            1 RES     
   24753 H6        -357.8279  -261.2511   486.7790 H6            1 RES     
   24754 H6        -355.7087  -261.3749   488.3108 H6            1 RES     
   24755 H6        -356.5673  -262.3895   489.4682 H6            1 RES     
   24756 H6        -356.8385  -259.2638   489.1264 H6            1 RES     
   24757 H6        -357.7688  -260.2789   490.2461 H6            1 RES     
   24758 H6        -355.9161  -260.2579   491.9790 H6            1 RES     
   24759 H6        -356.7429  -258.7566   491.6475 H6            1 RES     
   24760 H6        -354.8867  -257.4605   491.2360 H6            1 RES     
   24761 H6        -352.7055  -258.1623   490.2769 H6            1 RES     
   24762 H6        -354.2431  -258.5144   489.5080 H6            1 RES     
   24763 H6        -354.1552  -260.9780   490.2298 H6            1 RES     
   24764 H6        -352.4685  -260.6243   490.7142 H6            1 RES     
   24765 H6        -352.1135  -259.9084   488.1954 H6            1 RES     
   24766 H6        -353.7451  -260.4243   487.8441 H6            1 RES     
   24767 H6        -352.0445  -262.1523   487.1666 H6            1 RES     
   24768 H6        -353.2388  -262.8026   488.3193 H6            1 RES     
   24769 H6        -351.7207  -262.6310   490.1689 H6            1 RES     
   24770 H6        -350.9577  -263.6194   488.9361 H6            1 RES     
   24771 H6        -350.2470  -260.6425   488.7795 H6            1 RES     
   24772 H6        -349.8325  -261.4383   490.2982 H6            1 RES     
   24773 H6        -348.4214  -263.0751   489.2078 H6            1 RES     
   24774 H6        -347.9607  -261.3898   488.7732 H6            1 RES     
   24775 H6        -349.1118  -261.6517   486.5497 H6            1 RES     
   24776 H6        -347.7901  -262.8504   486.8219 H6            1 RES     
   24777 H6        -349.5050  -263.3701   486.9830 H6            1 RES     
   24778 H6        -354.1437  -256.3691   492.9613 H6            1 RES     
   24779 H6        -352.7095  -257.2603   492.8525 H6            1 RES     
   24780 H6        -352.4918  -258.9416   495.3566 H6            1 RES     
   24781 H6        -353.6457  -258.6736   496.7091 H6            1 RES     
   24782 H6        -354.7295  -259.3584   493.8676 H6            1 RES     
   24783 H6        -356.6441  -260.1850   494.9113 H6            1 RES     
   24784 H6        -355.9037  -260.0708   496.5369 H6            1 RES     
   24785 H6        -357.6522  -258.4082   496.1317 H6            1 RES     
   24786 H6        -356.0649  -257.6712   496.5556 H6            1 RES     
   24787 H6        -355.7702  -256.8493   494.3225 H6            1 RES     
   24788 H6        -357.0438  -257.8837   493.6335 H6            1 RES     
   24789 H6        -357.6146  -255.4812   493.7397 H6            1 RES     
   24790 H6        -358.6907  -256.5194   494.7532 H6            1 RES     
   24791 H6        -357.3098  -255.9124   496.7672 H6            1 RES     
   24792 H6        -356.3371  -254.7629   495.7770 H6            1 RES     
   24793 H6        -358.4420  -253.4486   495.3408 H6            1 RES     
   24794 H6        -359.4096  -254.7644   496.1286 H6            1 RES     
   24795 H6        -357.3416  -252.9984   497.4886 H6            1 RES     
   24796 H6        -358.1528  -254.4351   498.2696 H6            1 RES     
   24797 H6        -359.4933  -251.8818   497.2448 H6            1 RES     
   24798 H6        -359.2255  -252.3858   498.9658 H6            1 RES     
   24799 H6        -360.3461  -253.3421   497.9207 H6            1 RES     
   24800 H6        -353.8684  -261.5151   495.7669 H6            1 RES     
   24801 H6        -352.9699  -260.8997   494.3473 H6            1 RES     
   24802 H6        -354.5668  -261.7006   492.7212 H6            1 RES     
   24803 H6        -353.8118  -262.9276   493.7127 H6            1 RES     
   24804 H6        -356.7939  -262.1989   493.8454 H6            1 RES     
   24805 H6        -355.9827  -263.6433   493.1820 H6            1 RES     
   24806 H6        -356.0683  -262.7462   496.1005 H6            1 RES     
   24807 H6        -355.0248  -264.1107   495.5168 H6            1 RES     
   24808 H6        -356.9436  -265.4598   494.8651 H6            1 RES     
   24809 H6        -358.0770  -264.0920   495.1196 H6            1 RES     
   24810 H6        -358.2557  -265.6245   497.0313 H6            1 RES     
   24811 H6        -357.6662  -264.0071   497.4944 H6            1 RES     
   24812 H6        -356.4430  -265.6163   498.7916 H6            1 RES     
   24813 H6        -355.3220  -264.8464   497.6605 H6            1 RES     
   24814 H6        -355.4033  -266.8656   496.1679 H6            1 RES     
   24815 H6        -354.8356  -267.2303   497.8284 H6            1 RES     
   24816 H6        -357.6597  -267.8262   496.7192 H6            1 RES     
   24817 H6        -356.3279  -268.9947   496.9927 H6            1 RES     
   24818 H6        -356.3852  -268.5227   499.4549 H6            1 RES     
   24819 H6        -357.7721  -267.3853   499.1993 H6            1 RES     
   24820 H6        -357.9646  -269.1262   498.8264 H6            1 RES     
   24821 C0        -350.1256  -248.5259   507.9397 C0            1 RES     
   24822 C0        -351.8766  -249.0211   507.6080 C0            1 RES     
   24823 C0        -352.1067  -250.2638   508.1844 C0            1 RES     
   24824 S1        -353.5665  -251.0472   507.7295 S1            1 RES     
   24825 C0        -354.2527  -249.9717   506.6676 C0            1 RES     
   24826 C0        -353.1900  -248.8368   506.7148 C0            1 RES     
   24827 C0        -350.8652  -250.9315   508.5773 C0            1 RES     
   24828 C0        -349.9601  -250.0595   507.7223 C0            1 RES     
   24829 C0        -349.7163  -250.6397   506.5157 C0            1 RES     
   24830 C0        -350.1806  -251.9451   506.3742 C0            1 RES     
   24831 S1        -350.9169  -252.6142   507.8406 S1            1 RES     
   24832 H2        -353.3319  -248.0156   506.0225 H2            1 RES     
   24833 H2        -349.3828  -250.0919   505.6495 H2            1 RES     
   24834 N3        -357.0772  -252.5814   505.5883 N3            1 RES     
   24835 C0        -355.9861  -251.9625   506.0647 C0            1 RES     
   24836 C0        -355.6861  -250.5240   505.9520 C0            1 RES     
   24837 C0        -356.7927  -249.8836   505.2106 C0            1 RES     
   24838 N3        -356.8682  -248.5507   504.8999 N3            1 RES     
   24839 S1        -358.3261  -248.4119   504.1059 S1            1 RES     
   24840 N3        -358.9127  -249.9564   504.0801 N3            1 RES     
   24841 C0        -357.9535  -250.6337   504.7252 C0            1 RES     
   24842 C0        -358.0965  -251.9872   504.9089 C0            1 RES     
   24843 H4        -355.3060  -252.6266   506.5501 H4            1 RES     
   24844 C5        -335.4605  -245.2410   520.2018 C5            1 RES     
   24845 C5        -336.7669  -245.3923   519.3718 C5            1 RES     
   24846 C5        -336.6891  -244.7494   517.9481 C5            1 RES     
   24847 C5        -337.8401  -245.1011   516.8852 C5            1 RES     
   24848 C5        -339.2988  -244.4826   517.0107 C5            1 RES     
   24849 C5        -340.5900  -244.9978   516.0916 C5            1 RES     
   24850 C5        -340.9073  -244.6634   514.5038 C5            1 RES     
   24851 C5        -342.3974  -244.8590   513.5975 C5            1 RES     
   24852 C5        -343.0932  -246.1459   512.7201 C5            1 RES     
   24853 C5        -344.6137  -246.5523   511.8444 C5            1 RES     
   24854 C5        -345.3380  -246.3632   510.2275 C5            1 RES     
   24855 C5        -344.5106  -245.0215   509.7929 C5            1 RES     
   24856 C5        -344.5321  -243.7099   510.7029 C5            1 RES     
   24857 C5        -343.3238  -242.6979   510.4926 C5            1 RES     
   24858 C5        -343.4357  -241.3215   511.2538 C5            1 RES     
   24859 C5        -344.7722  -240.5830   511.0229 C5            1 RES     
   24860 C5        -345.1268  -240.3639   509.5321 C5            1 RES     
   24861 C5        -345.1289  -238.9106   509.0439 C5            1 RES     
   24862 C5        -343.7905  -238.1918   509.1732 C5            1 RES     
   24863 C5        -346.8514  -247.0431   509.1559 C5            1 RES     
   24864 C0        -348.6757  -247.7484   509.0771 C0            1 RES     
   24865 C5        -349.3313  -246.9750   510.2498 C5            1 RES     
   24866 C5        -348.4506  -246.8092   511.5810 C5            1 RES     
   24867 C5        -348.5464  -248.0173   512.5287 C5            1 RES     
   24868 C5        -348.3036  -249.4196   511.9246 C5            1 RES     
   24869 C5        -346.9819  -249.6013   511.1468 C5            1 RES     
   24870 C5        -346.6057  -251.0491   510.8602 C5            1 RES     
   24871 C5        -347.7224  -251.8102   510.1448 C5            1 RES     
   24872 C5        -347.4105  -253.3026   510.1021 C5            1 RES     
   24873 C5        -348.6612  -254.0646   509.6856 C5            1 RES     
   24874 C5        -348.5031  -255.5623   509.8141 C5            1 RES     
   24875 C5        -348.7523  -245.4478   512.2953 C5            1 RES     
   24876 C5        -347.7624  -244.8066   513.3420 C5            1 RES     
   24877 C5        -347.6079  -245.3370   514.7935 C5            1 RES     
   24878 C5        -348.9539  -245.4395   515.5224 C5            1 RES     
   24879 C5        -348.8208  -245.6550   517.0469 C5            1 RES     
   24880 C5        -350.1514  -246.1200   517.6787 C5            1 RES     
   24881 C5        -351.3649  -245.1912   517.4650 C5            1 RES     
   24882 C5        -351.2843  -243.8243   518.1701 C5            1 RES     
   24883 C5        -351.1964  -243.8909   519.7077 C5            1 RES     
   24884 C5        -352.3936  -244.5915   520.3561 C5            1 RES     
   24885 H6        -334.5944  -245.7263   519.6964 H6            1 RES     
   24886 H6        -335.1987  -244.1794   520.3980 H6            1 RES     
   24887 H6        -335.5661  -245.7443   521.1928 H6            1 RES     
   24888 H6        -336.9340  -246.4850   519.2708 H6            1 RES     
   24889 H6        -337.6015  -244.9493   519.9518 H6            1 RES     
   24890 H6        -336.5267  -243.6528   518.0526 H6            1 RES     
   24891 H6        -335.7430  -245.1613   517.5224 H6            1 RES     
   24892 H6        -337.9143  -246.2059   516.8841 H6            1 RES     
   24893 H6        -337.4464  -244.7711   515.9029 H6            1 RES     
   24894 H6        -339.1969  -243.3722   516.9770 H6            1 RES     
   24895 H6        -339.5650  -244.7107   518.0705 H6            1 RES     
   24896 H6        -341.4342  -244.5230   516.6390 H6            1 RES     
   24897 H6        -340.6561  -246.0866   516.2591 H6            1 RES     
   24898 H6        -340.7617  -243.5549   514.5388 H6            1 RES     
   24899 H6        -340.0459  -245.0318   513.9096 H6            1 RES     
   24900 H6        -342.2309  -244.0651   512.8401 H6            1 RES     
   24901 H6        -343.1453  -244.4342   514.3009 H6            1 RES     
   24902 H6        -342.2665  -246.4693   512.0545 H6            1 RES     
   24903 H6        -343.1206  -246.8733   513.5568 H6            1 RES     
   24904 H6        -345.3749  -246.2538   512.5716 H6            1 RES     
   24905 H6        -344.5509  -247.6461   511.9162 H6            1 RES     
   24906 H6        -344.6371  -247.0457   509.6966 H6            1 RES     
   24907 H6        -344.6322  -244.7608   508.7224 H6            1 RES     
   24908 H6        -343.4289  -245.3082   509.8765 H6            1 RES     
   24909 H6        -344.4944  -243.9556   511.7826 H6            1 RES     
   24910 H6        -345.4879  -243.2033   510.4975 H6            1 RES     
   24911 H6        -343.1830  -242.4920   509.4184 H6            1 RES     
   24912 H6        -342.3560  -243.1529   510.8081 H6            1 RES     
   24913 H6        -342.5937  -240.6511   510.9553 H6            1 RES     
   24914 H6        -343.3300  -241.4780   512.3524 H6            1 RES     
   24915 H6        -345.5504  -241.2250   511.4803 H6            1 RES     
   24916 H6        -344.8318  -239.6283   511.5948 H6            1 RES     
   24917 H6        -344.4950  -240.9659   508.8583 H6            1 RES     
   24918 H6        -346.1626  -240.7352   509.3851 H6            1 RES     
   24919 H6        -345.9025  -238.3378   509.5970 H6            1 RES     
   24920 H6        -345.4134  -238.9288   507.9683 H6            1 RES     
   24921 H6        -342.9918  -238.7372   508.6293 H6            1 RES     
   24922 H6        -343.8919  -237.1761   508.7317 H6            1 RES     
   24923 H6        -343.5087  -238.0788   510.2401 H6            1 RES     
   24924 H6        -346.3300  -247.8581   508.6039 H6            1 RES     
   24925 H6        -346.8725  -246.2750   508.3540 H6            1 RES     
   24926 H6        -349.5117  -245.9796   509.8006 H6            1 RES     
   24927 H6        -350.3094  -247.4320   510.4978 H6            1 RES     
   24928 H6        -347.4048  -246.7014   511.3620 H6            1 RES     
   24929 H6        -347.8109  -247.8695   513.3391 H6            1 RES     
   24930 H6        -349.5569  -248.0298   512.9791 H6            1 RES     
   24931 H6        -348.3131  -250.1272   512.7797 H6            1 RES     
   24932 H6        -349.1583  -249.6628   511.2590 H6            1 RES     
   24933 H6        -347.0797  -249.1642   510.1727 H6            1 RES     
   24934 H6        -346.1459  -249.1293   511.6872 H6            1 RES     
   24935 H6        -345.6820  -251.0761   510.2367 H6            1 RES     
   24936 H6        -346.3898  -251.5263   511.8365 H6            1 RES     
   24937 H6        -348.6482  -251.7022   510.7408 H6            1 RES     
   24938 H6        -347.9084  -251.4016   509.1251 H6            1 RES     
   24939 H6        -346.5615  -253.5111   509.4141 H6            1 RES     
   24940 H6        -347.1412  -253.6293   511.1282 H6            1 RES     
   24941 H6        -348.8670  -253.8286   508.6329 H6            1 RES     
   24942 H6        -349.5140  -253.7610   510.3384 H6            1 RES     
   24943 H6        -347.7104  -255.9157   509.1256 H6            1 RES     
   24944 H6        -349.4689  -256.0434   509.5488 H6            1 RES     
   24945 H6        -348.2492  -255.8231   510.8627 H6            1 RES     
   24946 H6        -349.7856  -245.4447   512.6859 H6            1 RES     
   24947 H6        -348.7031  -244.7003   511.4712 H6            1 RES     
   24948 H6        -346.7549  -244.6913   512.8995 H6            1 RES     
   24949 H6        -348.1214  -243.7626   513.4728 H6            1 RES     
   24950 H6        -347.0752  -246.3098   514.8360 H6            1 RES     
   24951 H6        -346.9672  -244.6003   515.3363 H6            1 RES     
   24952 H6        -349.4955  -246.2926   515.0656 H6            1 RES     
   24953 H6        -349.5318  -244.5039   515.3668 H6            1 RES     
   24954 H6        -348.4501  -244.7249   517.5366 H6            1 RES     
   24955 H6        -348.0778  -246.4568   517.2499 H6            1 RES     
   24956 H6        -350.0072  -246.3097   518.7634 H6            1 RES     
   24957 H6        -350.4022  -247.0979   517.2140 H6            1 RES     
   24958 H6        -352.2744  -245.7194   517.8170 H6            1 RES     
   24959 H6        -351.5140  -245.0260   516.3782 H6            1 RES     
   24960 H6        -350.4097  -243.2602   517.7833 H6            1 RES     
   24961 H6        -352.1982  -243.2489   517.9019 H6            1 RES     
   24962 H6        -350.2601  -244.3972   520.0199 H6            1 RES     
   24963 H6        -351.1604  -242.8487   520.0931 H6            1 RES     
   24964 H6        -353.3413  -244.0863   520.0719 H6            1 RES     
   24965 H6        -352.4426  -245.6593   520.0597 H6            1 RES     
   24966 H6        -352.2902  -244.5548   521.4611 H6            1 RES     
   24967 C0        -360.4063  -255.5428   501.9093 C0            1 RES     
   24968 C0        -359.5519  -256.3055   503.3617 C0            1 RES     
   24969 C0        -360.1877  -255.8885   504.5242 C0            1 RES     
   24970 S1        -359.3662  -256.2251   505.9952 S1            1 RES     
   24971 C0        -357.9818  -256.9853   505.4846 C0            1 RES     
   24972 C0        -358.2334  -256.9932   503.9496 C0            1 RES     
   24973 C0        -361.0912  -254.7616   504.2886 C0            1 RES     
   24974 C0        -360.4937  -254.3813   502.9437 C0            1 RES     
   24975 C0        -359.5537  -253.4070   503.0819 C0            1 RES     
   24976 C0        -359.4532  -252.8479   504.3535 C0            1 RES     
   24977 S1        -360.6446  -253.4646   505.5114 S1            1 RES     
   24978 H2        -357.4215  -257.3558   503.3307 H2            1 RES     
   24979 H2        -358.7912  -253.2084   502.3467 H2            1 RES     
   24980 N3        -356.3721  -256.8726   509.1383 N3            1 RES     
   24981 C0        -357.1070  -256.6921   508.0302 C0            1 RES     
   24982 C0        -356.8947  -257.3546   506.7310 C0            1 RES     
   24983 C0        -355.7216  -258.2444   506.8587 C0            1 RES     
   24984 N3        -355.2089  -259.0246   505.8550 N3            1 RES     
   24985 S1        -353.9373  -259.8184   506.5818 S1            1 RES     
   24986 N3        -353.9360  -259.2343   508.1273 N3            1 RES     
   24987 C0        -354.9733  -258.3866   508.1099 C0            1 RES     
   24988 C0        -355.2942  -257.6964   509.2530 C0            1 RES     
   24989 H4        -357.8958  -255.9851   508.1612 H4            1 RES     
   24990 C5        -376.4414  -252.0771   491.5614 C5            1 RES     
   24991 C5        -375.2339  -252.5709   492.4079 C5            1 RES     
   24992 C5        -373.8519  -252.4035   491.6951 C5            1 RES     
   24993 C5        -372.5145  -252.5794   492.5663 C5            1 RES     
   24994 C5        -372.0195  -254.0132   493.0412 C5            1 RES     
   24995 C5        -370.7896  -254.2342   494.1438 C5            1 RES     
   24996 C5        -369.1618  -254.0818   493.8975 C5            1 RES     
   24997 C5        -367.8253  -254.6454   494.8854 C5            1 RES     
   24998 C5        -366.9607  -253.9872   496.2004 C5            1 RES     
   24999 C5        -365.6731  -254.4497   497.3718 C5            1 RES     
   25000 C5        -363.8955  -254.4731   497.4919 C5            1 RES     
   25001 C5        -363.5880  -254.5962   495.8907 C5            1 RES     
   25002 C5        -364.2239  -255.7723   495.0181 C5            1 RES     
   25003 C5        -364.3081  -255.5088   493.4523 C5            1 RES     
   25004 C5        -364.7650  -256.7331   492.5698 C5            1 RES     
   25005 C5        -363.9666  -258.0288   492.8320 C5            1 RES     
   25006 C5        -362.4323  -257.8646   492.7089 C5            1 RES     
   25007 C5        -361.7639  -258.6057   491.5451 C5            1 RES     
   25008 C5        -362.2514  -258.1922   490.1608 C5            1 RES     
   25009 C5        -362.4704  -254.6862   498.8428 C5            1 RES     
   25010 C0        -361.8548  -255.4588   500.5327 C0            1 RES     
   25011 C5        -362.5882  -256.8242   500.5059 C5            1 RES     
   25012 C5        -364.1048  -256.8137   499.9812 C5            1 RES     
   25013 C5        -365.1257  -256.4625   501.0771 C5            1 RES     
   25014 C5        -364.8642  -255.1897   501.9151 C5            1 RES     
   25015 C5        -364.6434  -253.8871   501.1155 C5            1 RES     
   25016 C5        -364.7291  -252.6106   501.9418 C5            1 RES     
   25017 C5        -363.7859  -252.6315   503.1451 C5            1 RES     
   25018 C5        -364.0803  -251.4598   504.0761 C5            1 RES     
   25019 C5        -363.3653  -251.6810   505.4022 C5            1 RES     
   25020 C5        -363.7640  -250.6738   506.4563 C5            1 RES     
   25021 C5        -364.4532  -258.1412   499.2254 C5            1 RES     
   25022 C5        -365.6750  -258.2523   498.2347 C5            1 RES     
   25023 C5        -367.1484  -258.3423   498.7173 C5            1 RES     
   25024 C5        -367.3579  -259.4640   499.7426 C5            1 RES     
   25025 C5        -368.8441  -259.7943   500.0082 C5            1 RES     
   25026 C5        -369.0236  -260.6410   501.2876 C5            1 RES     
   25027 C5        -368.2564  -261.9792   501.3286 C5            1 RES     
   25028 C5        -368.7313  -263.0453   500.3238 C5            1 RES     
   25029 C5        -370.1913  -263.5054   500.5065 C5            1 RES     
   25030 C5        -370.4688  -264.1182   501.8821 C5            1 RES     
   25031 H6        -376.3554  -250.9937   491.3165 H6            1 RES     
   25032 H6        -376.5568  -252.6406   490.6111 H6            1 RES     
   25033 H6        -377.3934  -252.1936   492.1329 H6            1 RES     
   25034 H6        -375.2446  -251.9580   493.3332 H6            1 RES     
   25035 H6        -375.4063  -253.6334   492.6740 H6            1 RES     
   25036 H6        -373.8421  -253.0234   490.7702 H6            1 RES     
   25037 H6        -373.8569  -251.3409   491.3530 H6            1 RES     
   25038 H6        -372.6523  -251.9318   493.4538 H6            1 RES     
   25039 H6        -371.6988  -252.1597   491.9441 H6            1 RES     
   25040 H6        -371.8587  -254.6326   492.1275 H6            1 RES     
   25041 H6        -372.9369  -254.4385   493.5142 H6            1 RES     
   25042 H6        -370.9237  -255.3114   494.3879 H6            1 RES     
   25043 H6        -371.0834  -253.6527   495.0346 H6            1 RES     
   25044 H6        -369.0802  -254.6954   492.9657 H6            1 RES     
   25045 H6        -368.9747  -253.0431   493.5558 H6            1 RES     
   25046 H6        -367.0669  -254.7562   494.0827 H6            1 RES     
   25047 H6        -368.1450  -255.6822   495.1252 H6            1 RES     
   25048 H6        -366.6887  -252.9745   495.8379 H6            1 RES     
   25049 H6        -367.8316  -253.8524   496.8736 H6            1 RES     
   25050 H6        -366.0289  -255.4245   497.7190 H6            1 RES     
   25051 H6        -365.9251  -253.7419   498.1725 H6            1 RES     
   25052 H6        -363.7567  -253.3687   497.4992 H6            1 RES     
   25053 H6        -362.5181  -254.4527   495.6389 H6            1 RES     
   25054 H6        -364.0924  -253.7063   495.4294 H6            1 RES     
   25055 H6        -365.2704  -255.9860   495.3131 H6            1 RES     
   25056 H6        -363.6191  -256.6705   495.2170 H6            1 RES     
   25057 H6        -363.3362  -255.1498   493.0744 H6            1 RES     
   25058 H6        -365.0112  -254.6752   493.2200 H6            1 RES     
   25059 H6        -364.6886  -256.4719   491.4865 H6            1 RES     
   25060 H6        -365.8397  -256.9636   492.7559 H6            1 RES     
   25061 H6        -364.2081  -258.3223   493.8724 H6            1 RES     
   25062 H6        -364.3305  -258.8817   492.2138 H6            1 RES     
   25063 H6        -362.1251  -256.8060   492.6816 H6            1 RES     
   25064 H6        -361.9841  -258.2842   493.6337 H6            1 RES     
   25065 H6        -361.9137  -259.6985   491.6704 H6            1 RES     
   25066 H6        -360.6730  -258.3954   491.6088 H6            1 RES     
   25067 H6        -362.1149  -257.1028   490.0000 H6            1 RES     
   25068 H6        -361.6562  -258.7417   489.3989 H6            1 RES     
   25069 H6        -363.3191  -258.4610   490.0259 H6            1 RES     
   25070 H6        -362.2682  -253.6131   499.0628 H6            1 RES     
   25071 H6        -361.6083  -254.8927   498.1739 H6            1 RES     
   25072 H6        -361.9609  -257.4122   499.8088 H6            1 RES     
   25073 H6        -362.5378  -257.2948   501.5075 H6            1 RES     
   25074 H6        -364.2583  -256.0869   499.2057 H6            1 RES     
   25075 H6        -366.1128  -256.3494   500.5950 H6            1 RES     
   25076 H6        -365.1841  -257.3099   501.7860 H6            1 RES     
   25077 H6        -365.7555  -255.0618   502.5640 H6            1 RES     
   25078 H6        -363.9826  -255.3769   502.5635 H6            1 RES     
   25079 H6        -363.6445  -253.8739   500.7262 H6            1 RES     
   25080 H6        -365.3686  -253.8114   500.2895 H6            1 RES     
   25081 H6        -364.4860  -251.7341   501.2971 H6            1 RES     
   25082 H6        -365.7779  -252.5184   502.2866 H6            1 RES     
   25083 H6        -363.9906  -253.5504   503.7261 H6            1 RES     
   25084 H6        -362.7178  -252.6439   502.8281 H6            1 RES     
   25085 H6        -363.7784  -250.4962   503.6093 H6            1 RES     
   25086 H6        -365.1716  -251.4445   504.2785 H6            1 RES     
   25087 H6        -362.2857  -251.5859   505.2251 H6            1 RES     
   25088 H6        -363.6193  -252.6944   505.7949 H6            1 RES     
   25089 H6        -363.4632  -249.6570   506.1355 H6            1 RES     
   25090 H6        -363.2479  -250.9330   507.4056 H6            1 RES     
   25091 H6        -364.8607  -250.7188   506.6212 H6            1 RES     
   25092 H6        -364.4459  -258.9922   499.9297 H6            1 RES     
   25093 H6        -363.5986  -258.2784   498.5247 H6            1 RES     
   25094 H6        -365.6075  -257.4747   497.4506 H6            1 RES     
   25095 H6        -365.5120  -259.2051   497.6856 H6            1 RES     
   25096 H6        -367.5224  -257.3791   499.1228 H6            1 RES     
   25097 H6        -367.7669  -258.5682   497.8149 H6            1 RES     
   25098 H6        -366.8714  -259.1283   500.6809 H6            1 RES     
   25099 H6        -366.8691  -260.3933   499.3803 H6            1 RES     
   25100 H6        -369.2886  -260.3076   499.1243 H6            1 RES     
   25101 H6        -369.4153  -258.8541   500.1691 H6            1 RES     
   25102 H6        -370.1041  -260.8192   501.4726 H6            1 RES     
   25103 H6        -368.6519  -260.0248   502.1344 H6            1 RES     
   25104 H6        -368.3368  -262.3958   502.3533 H6            1 RES     
   25105 H6        -367.1758  -261.7881   501.1650 H6            1 RES     
   25106 H6        -368.6009  -262.6625   499.2898 H6            1 RES     
   25107 H6        -368.0730  -263.9355   500.4359 H6            1 RES     
   25108 H6        -370.8877  -262.6596   500.3329 H6            1 RES     
   25109 H6        -370.4039  -264.2801   499.7381 H6            1 RES     
   25110 H6        -369.7942  -264.9812   502.0672 H6            1 RES     
   25111 H6        -370.3374  -263.3687   502.6892 H6            1 RES     
   25112 H6        -371.5195  -264.4747   501.9235 H6            1 RES     
   25113 C0        -352.2370  -255.9323   513.0631 C0            1 RES     
   25114 C0        -353.9948  -255.3974   513.2762 C0            1 RES     
   25115 C0        -354.7791  -256.5205   513.5067 C0            1 RES     
   25116 S1        -356.4786  -256.2842   513.4189 S1            1 RES     
   25117 C0        -356.6131  -254.6709   513.0520 C0            1 RES     
   25118 C0        -355.1085  -254.2767   513.0306 C0            1 RES     
   25119 C0        -354.0722  -257.7638   513.1968 C0            1 RES     
   25120 C0        -352.9868  -257.1039   512.3619 C0            1 RES     
   25121 C0        -353.3027  -257.1275   511.0385 C0            1 RES     
   25122 C0        -354.4283  -257.8770   510.7047 C0            1 RES     
   25123 S1        -355.1653  -258.7250   512.0751 S1            1 RES     
   25124 H2        -354.8803  -253.2664   512.7131 H2            1 RES     
   25125 H2        -352.8657  -256.4629   510.3113 H2            1 RES     
   25126 N3        -360.5396  -254.9776   512.3872 N3            1 RES     
   25127 C0        -359.2291  -255.1889   512.5828 C0            1 RES     
   25128 C0        -358.2047  -254.1502   512.7924 C0            1 RES     
   25129 C0        -358.8725  -252.8329   512.7370 C0            1 RES     
   25130 N3        -358.2451  -251.6226   512.8806 N3            1 RES     
   25131 S1        -359.4863  -250.5177   512.7627 S1            1 RES     
   25132 N3        -360.8256  -251.4508   512.5066 N3            1 RES     
   25133 C0        -360.3141  -252.6890   512.5211 C0            1 RES     
   25134 C0        -361.1517  -253.7624   512.3406 C0            1 RES     
   25135 H4        -358.9639  -256.2226   512.5640 H4            1 RES     
   25136 C5        -336.4723  -265.2990   519.3839 C5            1 RES     
   25137 C5        -337.7563  -264.4711   519.0933 C5            1 RES     
   25138 C5        -337.5648  -263.3716   517.9976 C5            1 RES     
   25139 C5        -338.8702  -262.6649   517.3854 C5            1 RES     
   25140 C5        -339.6986  -261.5944   518.2185 C5            1 RES     
   25141 C5        -341.1861  -261.0172   517.7374 C5            1 RES     
   25142 C5        -341.5145  -259.9108   516.5536 C5            1 RES     
   25143 C5        -342.9853  -259.0023   516.2510 C5            1 RES     
   25144 C5        -344.4076  -259.3079   515.3601 C5            1 RES     
   25145 C5        -346.0152  -258.5639   515.0342 C5            1 RES     
   25146 C5        -346.7612  -257.3780   513.9334 C5            1 RES     
   25147 C5        -345.4115  -256.5046   513.6351 C5            1 RES     
   25148 C5        -344.5561  -255.8773   514.8283 C5            1 RES     
   25149 C5        -343.0420  -255.5288   514.4900 C5            1 RES     
   25150 C5        -342.2484  -254.7451   515.6045 C5            1 RES     
   25151 C5        -342.9677  -253.4766   516.1131 C5            1 RES     
   25152 C5        -343.3749  -252.4866   514.9949 C5            1 RES     
   25153 C5        -342.6493  -251.1361   514.9901 C5            1 RES     
   25154 C5        -341.1370  -251.2244   514.8170 C5            1 RES     
   25155 C5        -348.5460  -256.7632   513.3523 C5            1 RES     
   25156 C0        -350.4395  -256.4722   513.7542 C0            1 RES     
   25157 C5        -350.3582  -256.1011   515.2572 C5            1 RES     
   25158 C5        -349.3335  -256.9525   516.1518 C5            1 RES     
   25159 C5        -349.9294  -258.2729   516.6696 C5            1 RES     
   25160 C5        -350.6053  -259.2046   515.6374 C5            1 RES     
   25161 C5        -349.7513  -259.5842   514.4080 C5            1 RES     
   25162 C5        -350.2925  -260.7514   513.5927 C5            1 RES     
   25163 C5        -351.7411  -260.5334   513.1546 C5            1 RES     
   25164 C5        -352.3204  -261.8152   512.5650 C5            1 RES     
   25165 C5        -353.8311  -261.6716   512.4397 C5            1 RES     
   25166 C5        -354.5115  -262.9658   512.0567 C5            1 RES     
   25167 C5        -348.7107  -256.0757   517.2912 C5            1 RES     
   25168 C5        -347.3790  -256.4784   518.0334 C5            1 RES     
   25169 C5        -347.3140  -257.6051   519.1003 C5            1 RES     
   25170 C5        -348.3533  -257.4145   520.2126 C5            1 RES     
   25171 C5        -348.1195  -258.3188   521.4438 C5            1 RES     
   25172 C5        -349.3627  -258.3744   522.3589 C5            1 RES     
   25173 C5        -349.8732  -257.0195   522.8926 C5            1 RES     
   25174 C5        -348.9366  -256.3033   523.8834 C5            1 RES     
   25175 C5        -348.6552  -257.0774   525.1864 C5            1 RES     
   25176 C5        -349.9174  -257.3828   525.9978 C5            1 RES     
   25177 H6        -336.1151  -265.8351   518.4751 H6            1 RES     
   25178 H6        -335.6387  -264.6745   519.7698 H6            1 RES     
   25179 H6        -336.6787  -266.0851   520.1495 H6            1 RES     
   25180 H6        -338.5147  -265.2040   518.7472 H6            1 RES     
   25181 H6        -338.0994  -264.0150   520.0439 H6            1 RES     
   25182 H6        -336.8075  -262.6352   518.3498 H6            1 RES     
   25183 H6        -337.0886  -263.9213   517.1507 H6            1 RES     
   25184 H6        -339.5433  -263.4927   517.0893 H6            1 RES     
   25185 H6        -338.5233  -262.1451   516.4699 H6            1 RES     
   25186 H6        -339.0053  -260.7591   518.4753 H6            1 RES     
   25187 H6        -339.8725  -262.1257   519.1848 H6            1 RES     
   25188 H6        -341.5247  -260.5176   518.6721 H6            1 RES     
   25189 H6        -341.8168  -261.9110   517.5914 H6            1 RES     
   25190 H6        -340.7756  -259.1267   516.8542 H6            1 RES     
   25191 H6        -341.1106  -260.3142   515.6024 H6            1 RES     
   25192 H6        -342.5308  -258.1205   515.7536 H6            1 RES     
   25193 H6        -343.2479  -258.6535   517.2728 H6            1 RES     
   25194 H6        -344.0184  -259.6293   514.3720 H6            1 RES     
   25195 H6        -344.6990  -260.2346   515.8951 H6            1 RES     
   25196 H6        -346.3548  -258.3183   516.0450 H6            1 RES     
   25197 H6        -346.5586  -259.4761   514.7546 H6            1 RES     
   25198 H6        -346.6522  -257.9836   513.0058 H6            1 RES     
   25199 H6        -345.5379  -255.7720   512.8130 H6            1 RES     
   25200 H6        -344.6735  -257.2430   513.2233 H6            1 RES     
   25201 H6        -344.4883  -256.5654   515.6941 H6            1 RES     
   25202 H6        -345.0888  -254.9691   515.1503 H6            1 RES     
   25203 H6        -342.9851  -254.9532   513.5511 H6            1 RES     
   25204 H6        -342.4532  -256.4511   514.2757 H6            1 RES     
   25205 H6        -341.2369  -254.4618   515.2246 H6            1 RES     
   25206 H6        -342.0726  -255.4020   516.4878 H6            1 RES     
   25207 H6        -343.8857  -253.8366   516.6176 H6            1 RES     
   25208 H6        -342.3954  -252.9604   516.9182 H6            1 RES     
   25209 H6        -343.3007  -252.9354   513.9905 H6            1 RES     
   25210 H6        -344.4502  -252.2532   515.1415 H6            1 RES     
   25211 H6        -342.8750  -250.5939   515.9322 H6            1 RES     
   25212 H6        -343.0643  -250.5465   514.1424 H6            1 RES     
   25213 H6        -340.8743  -251.7605   513.8817 H6            1 RES     
   25214 H6        -340.7277  -250.1918   514.7623 H6            1 RES     
   25215 H6        -340.6732  -251.7350   515.6856 H6            1 RES     
   25216 H6        -348.6604  -257.3834   512.4341 H6            1 RES     
   25217 H6        -348.2660  -255.7989   512.8779 H6            1 RES     
   25218 H6        -350.0258  -255.0460   515.2191 H6            1 RES     
   25219 H6        -351.3706  -256.1355   515.7055 H6            1 RES     
   25220 H6        -348.4547  -257.2331   515.6020 H6            1 RES     
   25221 H6        -349.1168  -258.8427   517.1540 H6            1 RES     
   25222 H6        -350.6894  -258.0366   517.4382 H6            1 RES     
   25223 H6        -350.8681  -260.1319   516.1878 H6            1 RES     
   25224 H6        -351.5449  -258.7208   515.2971 H6            1 RES     
   25225 H6        -349.7451  -258.7675   513.7135 H6            1 RES     
   25226 H6        -348.7201  -259.8258   514.7117 H6            1 RES     
   25227 H6        -349.6530  -260.9033   512.6922 H6            1 RES     
   25228 H6        -350.2241  -261.6525   514.2335 H6            1 RES     
   25229 H6        -352.3418  -260.3053   514.0551 H6            1 RES     
   25230 H6        -351.8301  -259.6796   512.4443 H6            1 RES     
   25231 H6        -351.8530  -262.0469   511.5825 H6            1 RES     
   25232 H6        -352.1170  -262.6449   513.2739 H6            1 RES     
   25233 H6        -354.0372  -260.9290   511.6573 H6            1 RES     
   25234 H6        -354.2547  -261.3485   513.4205 H6            1 RES     
   25235 H6        -354.1704  -263.2853   511.0523 H6            1 RES     
   25236 H6        -355.6096  -262.7963   512.0410 H6            1 RES     
   25237 H6        -354.2806  -263.7473   512.8104 H6            1 RES     
   25238 H6        -349.4903  -255.7905   518.0200 H6            1 RES     
   25239 H6        -348.3884  -255.1486   516.7650 H6            1 RES     
   25240 H6        -346.5632  -256.6368   517.3029 H6            1 RES     
   25241 H6        -347.0726  -255.5643   518.5870 H6            1 RES     
   25242 H6        -347.4113  -258.6175   518.6557 H6            1 RES     
   25243 H6        -346.2953  -257.5552   519.5560 H6            1 RES     
   25244 H6        -349.3417  -257.6371   519.7619 H6            1 RES     
   25245 H6        -348.3316  -256.3609   520.5634 H6            1 RES     
   25246 H6        -347.2227  -257.9752   522.0094 H6            1 RES     
   25247 H6        -347.9245  -259.3621   521.1125 H6            1 RES     
   25248 H6        -349.1760  -259.0680   523.2058 H6            1 RES     
   25249 H6        -350.1841  -258.8192   521.7568 H6            1 RES     
   25250 H6        -350.8524  -257.1860   523.3861 H6            1 RES     
   25251 H6        -350.0777  -256.3419   522.0383 H6            1 RES     
   25252 H6        -347.9717  -256.0780   523.3824 H6            1 RES     
   25253 H6        -349.4071  -255.3320   524.1544 H6            1 RES     
   25254 H6        -348.1210  -258.0242   524.9659 H6            1 RES     
   25255 H6        -347.9863  -256.4523   525.8172 H6            1 RES     
   25256 H6        -350.4569  -256.4442   526.2468 H6            1 RES     
   25257 H6        -350.5967  -258.0616   525.4427 H6            1 RES     
   25258 H6        -349.6354  -257.8909   526.9439 H6            1 RES     
   25259 C0        -365.4900  -254.1801   509.5159 C0            1 RES     
   25260 C0        -364.9821  -255.7975   510.2558 C0            1 RES     
   25261 C0        -365.0838  -255.7083   511.6383 C0            1 RES     
   25262 S1        -364.3635  -256.9872   512.5313 S1            1 RES     
   25263 C0        -363.7361  -257.9642   511.3451 C0            1 RES     
   25264 C0        -364.1922  -257.1770   510.0834 C0            1 RES     
   25265 C0        -365.2349  -254.3263   512.0954 C0            1 RES     
   25266 C0        -364.7517  -253.6961   510.7993 C0            1 RES     
   25267 C0        -363.4218  -253.4133   510.8567 C0            1 RES     
   25268 C0        -362.8259  -253.5871   512.1035 C0            1 RES     
   25269 S1        -363.9551  -254.0562   513.3861 S1            1 RES     
   25270 H2        -363.8293  -257.5432   509.1305 H2            1 RES     
   25271 H2        -362.8069  -253.2686   509.9836 H2            1 RES     
   25272 N3        -361.7730  -260.2113   514.0004 N3            1 RES     
   25273 C0        -362.4508  -259.2535   513.3495 C0            1 RES     
   25274 C0        -362.8530  -259.2861   511.9320 C0            1 RES     
   25275 C0        -362.3677  -260.5545   511.3490 C0            1 RES     
   25276 N3        -362.5424  -260.9428   510.0460 N3            1 RES     
   25277 S1        -361.8273  -262.4462   509.9824 S1            1 RES     
   25278 N3        -361.2545  -262.6784   511.5147 N3            1 RES     
   25279 C0        -361.6346  -261.5519   512.1322 C0            1 RES     
   25280 C0        -361.3309  -261.3803   513.4606 C0            1 RES     
   25281 H4        -362.6822  -258.4123   513.9644 H4            1 RES     
   25282 C5        -378.3248  -239.7979   507.3631 C5            1 RES     
   25283 C5        -377.4766  -241.0924   507.5164 C5            1 RES     
   25284 C5        -376.3694  -241.2554   506.4239 C5            1 RES     
   25285 C5        -375.2350  -242.3704   506.6438 C5            1 RES     
   25286 C5        -375.5492  -243.9175   506.4596 C5            1 RES     
   25287 C5        -374.4904  -245.1230   506.9100 C5            1 RES     
   25288 C5        -373.1160  -245.6137   506.1330 C5            1 RES     
   25289 C5        -372.1784  -247.0823   506.3427 C5            1 RES     
   25290 C5        -370.8965  -247.5357   507.3729 C5            1 RES     
   25291 C5        -369.9133  -248.9854   507.7920 C5            1 RES     
   25292 C5        -368.4553  -249.8421   507.2309 C5            1 RES     
   25293 C5        -368.5292  -249.3622   505.6696 C5            1 RES     
   25294 C5        -369.8404  -249.6101   504.7931 C5            1 RES     
   25295 C5        -370.0142  -248.6716   503.5213 C5            1 RES     
   25296 C5        -371.2075  -249.0318   502.5556 C5            1 RES     
   25297 C5        -371.2316  -250.5107   502.1115 C5            1 RES     
   25298 C5        -369.9072  -251.0057   501.4813 C5            1 RES     
   25299 C5        -369.9587  -251.3612   499.9909 C5            1 RES     
   25300 C5        -370.3497  -250.2084   499.0727 C5            1 RES     
   25301 C5        -367.1929  -251.2380   507.8300 C5            1 RES     
   25302 C0        -366.8473  -252.8631   508.8651 C0            1 RES     
   25303 C5        -368.2075  -253.5915   508.7149 C5            1 RES     
   25304 C5        -369.5244  -252.6802   508.8187 C5            1 RES     
   25305 C5        -369.9877  -252.4427   510.2663 C5            1 RES     
   25306 C5        -368.9343  -251.9387   511.2796 C5            1 RES     
   25307 C5        -368.1602  -250.6657   510.8734 C5            1 RES     
   25308 C5        -367.3900  -250.0002   512.0065 C5            1 RES     
   25309 C5        -366.4383  -250.9679   512.7106 C5            1 RES     
   25310 C5        -365.8801  -250.3384   513.9828 C5            1 RES     
   25311 C5        -365.2061  -251.4160   514.8213 C5            1 RES     
   25312 C5        -364.8043  -250.9235   516.1927 C5            1 RES     
   25313 C5        -370.6659  -253.2250   507.8941 C5            1 RES     
   25314 C5        -371.8843  -252.3316   507.4422 C5            1 RES     
   25315 C5        -373.0602  -251.9655   508.3884 C5            1 RES     
   25316 C5        -373.6886  -253.2030   509.0421 C5            1 RES     
   25317 C5        -375.0429  -252.9220   509.7315 C5            1 RES     
   25318 C5        -375.4537  -254.0713   510.6784 C5            1 RES     
   25319 C5        -375.5622  -255.4713   510.0386 C5            1 RES     
   25320 C5        -376.7022  -255.6458   509.0180 C5            1 RES     
   25321 C5        -378.1202  -255.4408   509.5868 C5            1 RES     
   25322 C5        -378.4659  -256.4072   510.7231 C5            1 RES     
   25323 H6        -377.6934  -238.8828   507.4318 H6            1 RES     
   25324 H6        -378.8838  -239.7637   506.4037 H6            1 RES     
   25325 H6        -379.0754  -239.7223   508.1862 H6            1 RES     
   25326 H6        -376.9973  -241.0212   508.5150 H6            1 RES     
   25327 H6        -378.1637  -241.9626   507.5045 H6            1 RES     
   25328 H6        -376.8534  -241.3318   505.4240 H6            1 RES     
   25329 H6        -375.8394  -240.2731   506.4348 H6            1 RES     
   25330 H6        -374.8462  -242.1992   507.6663 H6            1 RES     
   25331 H6        -374.4358  -242.1270   505.9151 H6            1 RES     
   25332 H6        -375.9078  -244.0652   505.4136 H6            1 RES     
   25333 H6        -376.4584  -244.0540   507.0928 H6            1 RES     
   25334 H6        -375.1579  -246.0118   506.8602 H6            1 RES     
   25335 H6        -374.2652  -244.9360   507.9741 H6            1 RES     
   25336 H6        -373.5388  -245.7138   505.1022 H6            1 RES     
   25337 H6        -372.4422  -244.7349   506.0659 H6            1 RES     
   25338 H6        -371.7492  -247.1469   505.3213 H6            1 RES     
   25339 H6        -372.9757  -247.8557   506.3698 H6            1 RES     
   25340 H6        -370.1711  -246.7054   507.2483 H6            1 RES     
   25341 H6        -371.4251  -247.3451   508.3290 H6            1 RES     
   25342 H6        -370.6886  -249.7423   507.9454 H6            1 RES     
   25343 H6        -369.5985  -248.6784   508.7981 H6            1 RES     
   25344 H6        -367.7286  -249.0459   507.5085 H6            1 RES     
   25345 H6        -367.6162  -249.6110   505.0923 H6            1 RES     
   25346 H6        -368.5218  -248.2408   505.7103 H6            1 RES     
   25347 H6        -370.7662  -249.4456   505.3792 H6            1 RES     
   25348 H6        -369.8124  -250.6657   504.4813 H6            1 RES     
   25349 H6        -369.0821  -248.6532   502.9323 H6            1 RES     
   25350 H6        -370.1636  -247.6082   503.8212 H6            1 RES     
   25351 H6        -371.1741  -248.3805   501.6487 H6            1 RES     
   25352 H6        -372.1831  -248.8195   503.0513 H6            1 RES     
   25353 H6        -371.4246  -251.0953   503.0324 H6            1 RES     
   25354 H6        -372.1007  -250.7400   501.4526 H6            1 RES     
   25355 H6        -369.0739  -250.3042   501.6524 H6            1 RES     
   25356 H6        -369.6254  -251.9417   502.0073 H6            1 RES     
   25357 H6        -370.6667  -252.2024   499.8376 H6            1 RES     
   25358 H6        -368.9410  -251.7074   499.7033 H6            1 RES     
   25359 H6        -369.6602  -249.3482   499.1985 H6            1 RES     
   25360 H6        -370.2903  -250.5609   498.0196 H6            1 RES     
   25361 H6        -371.3923  -249.8864   499.2717 H6            1 RES     
   25362 H6        -366.3976  -250.5887   508.2624 H6            1 RES     
   25363 H6        -366.7105  -251.4824   506.8600 H6            1 RES     
   25364 H6        -368.1328  -254.0169   507.6958 H6            1 RES     
   25365 H6        -368.2665  -254.4256   509.4414 H6            1 RES     
   25366 H6        -369.3713  -251.7013   508.4045 H6            1 RES     
   25367 H6        -370.8086  -251.7043   510.2409 H6            1 RES     
   25368 H6        -370.3915  -253.3924   510.6651 H6            1 RES     
   25369 H6        -369.4873  -251.7338   512.2198 H6            1 RES     
   25370 H6        -368.2141  -252.7621   511.4690 H6            1 RES     
   25371 H6        -367.3995  -250.9235   510.1632 H6            1 RES     
   25372 H6        -368.8430  -249.9192   510.4369 H6            1 RES     
   25373 H6        -366.8091  -249.1379   511.6041 H6            1 RES     
   25374 H6        -368.1403  -249.6184   512.7267 H6            1 RES     
   25375 H6        -367.0217  -251.8518   513.0302 H6            1 RES     
   25376 H6        -365.6238  -251.3084   512.0310 H6            1 RES     
   25377 H6        -365.1742  -249.5133   513.7408 H6            1 RES     
   25378 H6        -366.7304  -249.9345   514.5709 H6            1 RES     
   25379 H6        -364.3000  -251.7400   514.2922 H6            1 RES     
   25380 H6        -365.9122  -252.2682   514.9657 H6            1 RES     
   25381 H6        -364.0465  -250.1212   516.0953 H6            1 RES     
   25382 H6        -364.3742  -251.7753   516.7619 H6            1 RES     
   25383 H6        -365.6986  -250.5474   516.7321 H6            1 RES     
   25384 H6        -371.0188  -254.2045   508.2634 H6            1 RES     
   25385 H6        -370.1564  -253.3980   506.9191 H6            1 RES     
   25386 H6        -371.5239  -251.4069   506.9532 H6            1 RES     
   25387 H6        -372.3674  -252.9021   506.6193 H6            1 RES     
   25388 H6        -372.7667  -251.2300   509.1660 H6            1 RES     
   25389 H6        -373.8352  -251.4673   507.7567 H6            1 RES     
   25390 H6        -372.9547  -253.5732   509.7865 H6            1 RES     
   25391 H6        -373.8626  -253.9820   508.2698 H6            1 RES     
   25392 H6        -375.8322  -252.7329   508.9677 H6            1 RES     
   25393 H6        -374.9624  -252.0085   510.3602 H6            1 RES     
   25394 H6        -376.4052  -253.8151   511.1906 H6            1 RES     
   25395 H6        -374.6727  -254.1315   511.4667 H6            1 RES     
   25396 H6        -375.6945  -256.2158   510.8499 H6            1 RES     
   25397 H6        -374.6000  -255.7268   509.5490 H6            1 RES     
   25398 H6        -376.5493  -254.9455   508.1701 H6            1 RES     
   25399 H6        -376.6400  -256.6801   508.6123 H6            1 RES     
   25400 H6        -378.2481  -254.3969   509.9395 H6            1 RES     
   25401 H6        -378.8466  -255.6091   508.7621 H6            1 RES     
   25402 H6        -378.3637  -257.4601   510.3836 H6            1 RES     
   25403 H6        -377.8138  -256.2398   511.6046 H6            1 RES     
   25404 H6        -379.5151  -256.2394   511.0456 H6            1 RES     
   25405 C0        -357.2451  -263.0491   516.1986 C0            1 RES     
   25406 C0        -358.3501  -261.9506   517.1955 C0            1 RES     
   25407 C0        -359.5763  -262.5819   517.3617 C0            1 RES     
   25408 S1        -360.8473  -261.6081   517.9845 S1            1 RES     
   25409 C0        -360.1218  -260.1284   518.1825 C0            1 RES     
   25410 C0        -358.6779  -260.4761   517.7200 C0            1 RES     
   25411 C0        -359.7378  -263.7254   516.4628 C0            1 RES     
   25412 C0        -358.6194  -263.3194   515.5168 C0            1 RES     
   25413 C0        -359.1027  -262.6101   514.4608 C0            1 RES     
   25414 C0        -360.4909  -262.5487   514.3657 C0            1 RES     
   25415 S1        -361.3432  -263.4932   515.5994 S1            1 RES     
   25416 H2        -357.9824  -259.6484   517.6506 H2            1 RES     
   25417 H2        -358.4941  -261.9619   513.8518 H2            1 RES     
   25418 N3        -363.6053  -258.3377   518.9650 N3            1 RES     
   25419 C0        -362.6207  -259.1681   518.5890 C0            1 RES     
   25420 C0        -361.1748  -258.9042   518.6968 C0            1 RES     
   25421 C0        -360.9988  -257.5580   519.2808 C0            1 RES     
   25422 N3        -359.7926  -256.9557   519.5280 N3            1 RES     
   25423 S1        -360.2127  -255.4939   520.2079 S1            1 RES     
   25424 N3        -361.8648  -255.5159   520.2069 N3            1 RES     
   25425 C0        -362.1311  -256.7132   519.6679 C0            1 RES     
   25426 C0        -363.4391  -257.0996   519.5063 C0            1 RES     
   25427 H4        -362.9801  -260.0825   518.1719 H4            1 RES     
   25428 C5        -348.5479  -280.1210   513.1786 C5            1 RES     
   25429 C5        -349.1843  -278.7795   513.6411 C5            1 RES     
   25430 C5        -348.5941  -277.5203   512.9256 C5            1 RES     
   25431 C5        -349.3668  -276.1208   513.0773 C5            1 RES     
   25432 C5        -349.3164  -275.2909   514.4319 C5            1 RES     
   25433 C5        -350.2884  -273.9703   514.7289 C5            1 RES     
   25434 C5        -350.1333  -272.4367   514.1308 C5            1 RES     
   25435 C5        -350.8795  -270.9447   514.6757 C5            1 RES     
   25436 C5        -352.3533  -270.1587   514.3293 C5            1 RES     
   25437 C5        -353.3062  -268.7241   514.8565 C5            1 RES     
   25438 C5        -353.4347  -266.9811   514.5099 C5            1 RES     
   25439 C5        -351.8961  -266.7639   514.0009 C5            1 RES     
   25440 C5        -350.6583  -267.1831   514.9182 C5            1 RES     
   25441 C5        -349.2829  -267.4298   514.1595 C5            1 RES     
   25442 C5        -348.0215  -267.6649   515.0761 C5            1 RES     
   25443 C5        -347.8243  -266.5847   516.1620 C5            1 RES     
   25444 C5        -347.7875  -265.1363   515.6170 C5            1 RES     
   25445 C5        -346.4471  -264.4020   515.7379 C5            1 RES     
   25446 C5        -345.2887  -265.0619   514.9979 C5            1 RES     
   25447 C5        -354.6447  -265.4554   514.8401 C5            1 RES     
   25448 C0        -355.9654  -264.5709   515.9825 C0            1 RES     
   25449 C5        -355.4523  -264.9856   517.3853 C5            1 RES     
   25450 C5        -354.9439  -266.4994   517.5445 C5            1 RES     
   25451 C5        -356.0794  -267.4954   517.8364 C5            1 RES     
   25452 C5        -357.3134  -267.4642   516.9054 C5            1 RES     
   25453 C5        -357.0235  -267.5908   515.3939 C5            1 RES     
   25454 C5        -358.2432  -267.8991   514.5353 C5            1 RES     
   25455 C5        -359.3758  -266.8946   514.7508 C5            1 RES     
   25456 C5        -360.6540  -267.3758   514.0718 C5            1 RES     
   25457 C5        -361.8282  -266.5410   514.5643 C5            1 RES     
   25458 C5        -363.1628  -267.0789   514.1013 C5            1 RES     
   25459 C5        -353.7665  -266.5974   518.5736 C5            1 RES     
   25460 C5        -352.7831  -267.8294   518.6155 C5            1 RES     
   25461 C5        -353.1834  -269.2103   519.2025 C5            1 RES     
   25462 C5        -353.7482  -269.0972   520.6244 C5            1 RES     
   25463 C5        -353.8610  -270.4524   521.3585 C5            1 RES     
   25464 C5        -354.7605  -270.3534   522.6104 C5            1 RES     
   25465 C5        -354.3408  -269.3092   523.6662 C5            1 RES     
   25466 C5        -353.0200  -269.6049   524.4009 C5            1 RES     
   25467 C5        -353.0102  -270.9117   525.2186 C5            1 RES     
   25468 C5        -354.0803  -270.9529   526.3131 C5            1 RES     
   25469 H6        -348.6990  -280.2927   512.0883 H6            1 RES     
   25470 H6        -347.4589  -280.1740   513.3916 H6            1 RES     
   25471 H6        -349.0294  -280.9828   513.7003 H6            1 RES     
   25472 H6        -350.2654  -278.8619   513.4036 H6            1 RES     
   25473 H6        -349.0592  -278.6951   514.7396 H6            1 RES     
   25474 H6        -347.5109  -277.4373   513.1699 H6            1 RES     
   25475 H6        -348.6457  -277.7825   511.8418 H6            1 RES     
   25476 H6        -350.4228  -276.3371   512.8244 H6            1 RES     
   25477 H6        -348.9421  -275.4620   512.2935 H6            1 RES     
   25478 H6        -348.2459  -275.0603   514.6448 H6            1 RES     
   25479 H6        -349.5979  -276.0576   515.1928 H6            1 RES     
   25480 H6        -350.1381  -273.8468   515.8243 H6            1 RES     
   25481 H6        -351.3224  -274.3235   514.5733 H6            1 RES     
   25482 H6        -349.0469  -272.2856   514.3504 H6            1 RES     
   25483 H6        -350.1795  -272.5068   513.0246 H6            1 RES     
   25484 H6        -350.0992  -270.2371   514.3262 H6            1 RES     
   25485 H6        -350.7367  -271.0110   515.7756 H6            1 RES     
   25486 H6        -352.3721  -270.1419   513.2201 H6            1 RES     
   25487 H6        -353.0192  -270.9900   514.6384 H6            1 RES     
   25488 H6        -353.2852  -268.8319   515.9452 H6            1 RES     
   25489 H6        -354.3005  -269.0707   514.5454 H6            1 RES     
   25490 H6        -353.8300  -267.0889   513.4749 H6            1 RES     
   25491 H6        -351.7251  -265.7717   513.5374 H6            1 RES     
   25492 H6        -351.7686  -267.4822   513.1483 H6            1 RES     
   25493 H6        -350.8455  -268.1342   515.4550 H6            1 RES     
   25494 H6        -350.5384  -266.3831   515.6651 H6            1 RES     
   25495 H6        -349.0679  -266.5890   513.4791 H6            1 RES     
   25496 H6        -349.3476  -268.3134   513.4826 H6            1 RES     
   25497 H6        -347.0993  -267.7220   514.4485 H6            1 RES     
   25498 H6        -348.1005  -268.6471   515.5973 H6            1 RES     
   25499 H6        -348.6927  -266.6840   516.8424 H6            1 RES     
   25500 H6        -346.9417  -266.7930   516.8099 H6            1 RES     
   25501 H6        -348.1367  -265.0724   514.5731 H6            1 RES     
   25502 H6        -348.5128  -264.5447   516.2137 H6            1 RES     
   25503 H6        -346.1798  -264.2985   516.8104 H6            1 RES     
   25504 H6        -346.5952  -263.3825   515.3172 H6            1 RES     
   25505 H6        -345.5212  -265.1800   513.9195 H6            1 RES     
   25506 H6        -344.3908  -264.4136   515.0994 H6            1 RES     
   25507 H6        -345.0536  -266.0507   515.4421 H6            1 RES     
   25508 H6        -355.2292  -265.4801   513.8921 H6            1 RES     
   25509 H6        -353.9577  -264.6166   514.5998 H6            1 RES     
   25510 H6        -354.6021  -264.2932   517.5366 H6            1 RES     
   25511 H6        -356.2264  -264.7646   518.1463 H6            1 RES     
   25512 H6        -354.4699  -266.8617   516.6516 H6            1 RES     
   25513 H6        -355.6539  -268.5136   517.7950 H6            1 RES     
   25514 H6        -356.4458  -267.3171   518.8650 H6            1 RES     
   25515 H6        -357.9538  -268.3154   517.2172 H6            1 RES     
   25516 H6        -357.8672  -266.5209   517.0957 H6            1 RES     
   25517 H6        -356.6771  -266.6483   515.0181 H6            1 RES     
   25518 H6        -356.2665  -268.3695   515.2080 H6            1 RES     
   25519 H6        -357.9495  -267.8997   513.4599 H6            1 RES     
   25520 H6        -358.5841  -268.9164   514.8114 H6            1 RES     
   25521 H6        -359.5955  -266.8518   515.8342 H6            1 RES     
   25522 H6        -359.0891  -265.8743   514.4073 H6            1 RES     
   25523 H6        -360.5582  -267.3261   512.9646 H6            1 RES     
   25524 H6        -360.8340  -268.4273   514.3786 H6            1 RES     
   25525 H6        -361.7104  -265.5234   514.1683 H6            1 RES     
   25526 H6        -361.8378  -266.5380   515.6804 H6            1 RES     
   25527 H6        -363.2223  -267.0321   512.9961 H6            1 RES     
   25528 H6        -363.9682  -266.4548   514.5447 H6            1 RES     
   25529 H6        -363.2865  -268.1249   514.4515 H6            1 RES     
   25530 H6        -354.1283  -266.3548   519.5887 H6            1 RES     
   25531 H6        -353.0738  -265.7834   518.2610 H6            1 RES     
   25532 H6        -352.3218  -267.9885   517.6225 H6            1 RES     
   25533 H6        -351.9374  -267.4983   519.2567 H6            1 RES     
   25534 H6        -353.8954  -269.7588   518.5511 H6            1 RES     
   25535 H6        -352.2507  -269.8239   519.2404 H6            1 RES     
   25536 H6        -354.7512  -268.6338   520.5292 H6            1 RES     
   25537 H6        -353.0902  -268.4415   521.2334 H6            1 RES     
   25538 H6        -352.8474  -270.8321   521.6244 H6            1 RES     
   25539 H6        -354.3332  -271.2043   520.6893 H6            1 RES     
   25540 H6        -354.8566  -271.3528   523.0849 H6            1 RES     
   25541 H6        -355.7744  -270.0696   522.2548 H6            1 RES     
   25542 H6        -355.1536  -269.2258   524.4161 H6            1 RES     
   25543 H6        -354.2692  -268.3110   523.1872 H6            1 RES     
   25544 H6        -352.1874  -269.6329   523.6669 H6            1 RES     
   25545 H6        -352.8224  -268.7606   525.0983 H6            1 RES     
   25546 H6        -353.1342  -271.7876   524.5493 H6            1 RES     
   25547 H6        -352.0163  -271.0003   525.7088 H6            1 RES     
   25548 H6        -353.9607  -270.0938   527.0072 H6            1 RES     
   25549 H6        -355.1004  -270.9352   525.8779 H6            1 RES     
   25550 H6        -353.9798  -271.8940   526.8938 H6            1 RES     
   25551 C0        -367.6669  -254.2537   518.5057 C0            1 RES     
   25552 C0        -368.0299  -256.0673   518.4967 C0            1 RES     
   25553 C0        -367.8418  -256.5674   519.7789 C0            1 RES     
   25554 S1        -367.8192  -258.2791   519.9248 S1            1 RES     
   25555 C0        -368.0385  -258.7905   518.3610 C0            1 RES     
   25556 C0        -368.1770  -257.4147   517.6483 C0            1 RES     
   25557 C0        -367.1259  -255.6268   520.6417 C0            1 RES     
   25558 C0        -366.5898  -254.7729   519.5041 C0            1 RES     
   25559 C0        -365.3377  -255.1654   519.1435 C0            1 RES     
   25560 C0        -364.7473  -256.1182   519.9702 C0            1 RES     
   25561 S1        -365.7239  -256.5551   521.3829 S1            1 RES     
   25562 H2        -368.2364  -257.4368   516.5668 H2            1 RES     
   25563 H2        -364.8952  -254.9361   518.1879 H2            1 RES     
   25564 N3        -367.2549  -262.5889   519.3157 N3            1 RES     
   25565 C0        -367.3820  -261.2538   519.2735 C0            1 RES     
   25566 C0        -367.9559  -260.4716   518.1641 C0            1 RES     
   25567 C0        -368.3561  -261.4153   517.0994 C0            1 RES     
   25568 N3        -368.9229  -261.0617   515.9025 N3            1 RES     
   25569 S1        -369.1824  -262.5209   515.1417 S1            1 RES     
   25570 N3        -368.5976  -263.6359   516.2116 N3            1 RES     
   25571 C0        -368.1846  -262.8645   517.2261 C0            1 RES     
   25572 C0        -367.6284  -263.4553   518.3341 C0            1 RES     
   25573 H4        -367.0061  -260.7693   520.1471 H4            1 RES     
   25574 C5        -370.5227  -236.4194   525.5765 C5            1 RES     
   25575 C5        -370.5229  -237.8709   525.0185 C5            1 RES     
   25576 C5        -369.8842  -238.0015   523.5969 C5            1 RES     
   25577 C5        -369.5404  -239.4692   523.0436 C5            1 RES     
   25578 C5        -370.6841  -240.4543   522.5459 C5            1 RES     
   25579 C5        -370.4154  -242.0616   522.1975 C5            1 RES     
   25580 C5        -369.6895  -242.7057   520.8590 C5            1 RES     
   25581 C5        -369.7041  -244.3576   520.2665 C5            1 RES     
   25582 C5        -368.7432  -245.7350   520.5660 C5            1 RES     
   25583 C5        -368.6766  -247.4853   520.1467 C5            1 RES     
   25584 C5        -368.0506  -248.5476   518.8605 C5            1 RES     
   25585 C5        -368.0954  -247.4470   517.6521 C5            1 RES     
   25586 C5        -369.4442  -246.6715   517.2941 C5            1 RES     
   25587 C5        -369.2700  -245.2981   516.5119 C5            1 RES     
   25588 C5        -370.5990  -244.6225   515.9987 C5            1 RES     
   25589 C5        -371.5097  -245.5672   515.1842 C5            1 RES     
   25590 C5        -370.8034  -246.2578   513.9924 C5            1 RES     
   25591 C5        -371.2816  -245.8497   512.5941 C5            1 RES     
   25592 C5        -371.1092  -244.3704   512.2669 C5            1 RES     
   25593 C5        -367.6972  -250.4593   518.5119 C5            1 RES     
   25594 C0        -368.1497  -252.3385   518.8209 C0            1 RES     
   25595 C5        -369.6884  -252.2387   518.9809 C5            1 RES     
   25596 C5        -370.2423  -250.9930   519.8276 C5            1 RES     
   25597 C5        -370.2569  -251.2466   521.3449 C5            1 RES     
   25598 C5        -368.9547  -251.7695   521.9940 C5            1 RES     
   25599 C5        -367.6819  -250.9387   521.7205 C5            1 RES     
   25600 C5        -366.5023  -251.2638   522.6276 C5            1 RES     
   25601 C5        -366.1485  -252.7512   522.6120 C5            1 RES     
   25602 C5        -365.1397  -253.0727   523.7098 C5            1 RES     
   25603 C5        -365.0520  -254.5828   523.8837 C5            1 RES     
   25604 C5        -364.2309  -254.9859   525.0871 C5            1 RES     
   25605 C5        -371.6249  -250.5025   519.2775 C5            1 RES     
   25606 C5        -372.1972  -249.0673   519.5927 C5            1 RES     
   25607 C5        -372.8029  -248.6832   520.9702 C5            1 RES     
   25608 C5        -373.8972  -249.6605   521.4181 C5            1 RES     
   25609 C5        -374.7370  -249.1499   522.6107 C5            1 RES     
   25610 C5        -375.5577  -250.2850   523.2620 C5            1 RES     
   25611 C5        -376.5249  -251.0438   522.3294 C5            1 RES     
   25612 C5        -377.7164  -250.2227   521.8022 C5            1 RES     
   25613 C5        -378.6697  -249.6894   522.8900 C5            1 RES     
   25614 C5        -379.3055  -250.7950   523.7375 C5            1 RES     
   25615 H6        -369.4887  -236.0156   525.6700 H6            1 RES     
   25616 H6        -371.1142  -235.7194   524.9486 H6            1 RES     
   25617 H6        -370.9618  -236.3948   526.6028 H6            1 RES     
   25618 H6        -369.9318  -238.4710   525.7414 H6            1 RES     
   25619 H6        -371.5683  -238.2404   525.0089 H6            1 RES     
   25620 H6        -370.4822  -237.4029   522.8730 H6            1 RES     
   25621 H6        -368.9050  -237.4748   523.6966 H6            1 RES     
   25622 H6        -368.9641  -239.9620   523.8504 H6            1 RES     
   25623 H6        -368.8697  -239.3086   522.1758 H6            1 RES     
   25624 H6        -371.2266  -239.9461   521.7141 H6            1 RES     
   25625 H6        -371.4008  -240.4406   523.4017 H6            1 RES     
   25626 H6        -371.4611  -242.4374   522.1418 H6            1 RES     
   25627 H6        -369.9571  -242.4883   523.1063 H6            1 RES     
   25628 H6        -370.2556  -242.1389   520.0783 H6            1 RES     
   25629 H6        -368.6628  -242.2886   520.8064 H6            1 RES     
   25630 H6        -369.5531  -244.1435   519.1881 H6            1 RES     
   25631 H6        -370.7796  -244.6203   520.3605 H6            1 RES     
   25632 H6        -367.7105  -245.3529   520.4294 H6            1 RES     
   25633 H6        -368.9160  -245.7779   521.6606 H6            1 RES     
   25634 H6        -369.7047  -247.8010   520.3486 H6            1 RES     
   25635 H6        -368.0879  -247.8322   521.0062 H6            1 RES     
   25636 H6        -366.9713  -248.3714   519.0679 H6            1 RES     
   25637 H6        -367.5801  -247.7875   516.7316 H6            1 RES     
   25638 H6        -367.4613  -246.5944   518.0129 H6            1 RES     
   25639 H6        -370.0151  -246.3949   518.2025 H6            1 RES     
   25640 H6        -370.0564  -247.3680   516.7005 H6            1 RES     
   25641 H6        -368.5929  -245.4336   515.6521 H6            1 RES     
   25642 H6        -368.7544  -244.5366   517.1424 H6            1 RES     
   25643 H6        -370.3562  -243.7267   515.3774 H6            1 RES     
   25644 H6        -371.1987  -244.2465   516.8599 H6            1 RES     
   25645 H6        -371.8437  -246.3468   515.8967 H6            1 RES     
   25646 H6        -372.4523  -245.0692   514.8592 H6            1 RES     
   25647 H6        -369.7066  -246.1552   514.0387 H6            1 RES     
   25648 H6        -371.0078  -247.3455   514.0778 H6            1 RES     
   25649 H6        -372.3507  -246.1245   512.4762 H6            1 RES     
   25650 H6        -370.6884  -246.4411   511.8616 H6            1 RES     
   25651 H6        -370.0491  -244.0605   512.3730 H6            1 RES     
   25652 H6        -371.4250  -244.2033   511.2137 H6            1 RES     
   25653 H6        -371.7503  -243.7474   512.9235 H6            1 RES     
   25654 H6        -366.6185  -250.4967   518.7873 H6            1 RES     
   25655 H6        -367.5943  -250.4317   517.4064 H6            1 RES     
   25656 H6        -370.0267  -252.1502   517.9307 H6            1 RES     
   25657 H6        -370.0825  -253.1856   519.3994 H6            1 RES     
   25658 H6        -369.6410  -250.1136   519.6918 H6            1 RES     
   25659 H6        -370.5221  -250.2974   521.8431 H6            1 RES     
   25660 H6        -371.0491  -251.9858   521.5688 H6            1 RES     
   25661 H6        -369.1419  -251.7834   523.0879 H6            1 RES     
   25662 H6        -368.7925  -252.8135   521.6529 H6            1 RES     
   25663 H6        -367.3175  -251.1599   520.7368 H6            1 RES     
   25664 H6        -367.8958  -249.8614   521.8074 H6            1 RES     
   25665 H6        -365.6145  -250.6694   522.3092 H6            1 RES     
   25666 H6        -366.7879  -250.9550   523.6525 H6            1 RES     
   25667 H6        -367.0637  -253.3245   522.8521 H6            1 RES     
   25668 H6        -365.7810  -253.0743   521.6110 H6            1 RES     
   25669 H6        -364.1446  -252.6338   523.4755 H6            1 RES     
   25670 H6        -365.5159  -252.6437   524.6619 H6            1 RES     
   25671 H6        -364.5764  -255.0004   522.9862 H6            1 RES     
   25672 H6        -366.0779  -254.9993   524.0242 H6            1 RES     
   25673 H6        -363.1830  -254.6521   524.9542 H6            1 RES     
   25674 H6        -364.2606  -256.0928   525.1801 H6            1 RES     
   25675 H6        -364.6664  -254.5377   526.0044 H6            1 RES     
   25676 H6        -372.3967  -251.2742   519.4478 H6            1 RES     
   25677 H6        -371.4610  -250.4290   518.1784 H6            1 RES     
   25678 H6        -371.4687  -248.2885   519.2981 H6            1 RES     
   25679 H6        -373.0399  -248.9328   518.8802 H6            1 RES     
   25680 H6        -372.0308  -248.5851   521.7615 H6            1 RES     
   25681 H6        -373.2611  -247.6719   520.8468 H6            1 RES     
   25682 H6        -373.3837  -250.6041   521.6935 H6            1 RES     
   25683 H6        -374.5950  -249.8476   520.5745 H6            1 RES     
   25684 H6        -375.3993  -248.3144   522.2859 H6            1 RES     
   25685 H6        -374.0641  -248.7529   523.4018 H6            1 RES     
   25686 H6        -376.1107  -249.8928   524.1416 H6            1 RES     
   25687 H6        -374.8268  -251.0273   523.6491 H6            1 RES     
   25688 H6        -376.9156  -251.9262   522.8760 H6            1 RES     
   25689 H6        -375.9593  -251.4503   521.4660 H6            1 RES     
   25690 H6        -377.3393  -249.3676   521.2028 H6            1 RES     
   25691 H6        -378.3040  -250.8760   521.1194 H6            1 RES     
   25692 H6        -378.1390  -248.9761   523.5534 H6            1 RES     
   25693 H6        -379.4885  -249.1333   522.3837 H6            1 RES     
   25694 H6        -379.8600  -251.5098   523.0927 H6            1 RES     
   25695 H6        -378.5387  -251.3443   524.3212 H6            1 RES     
   25696 H6        -380.0176  -250.3441   524.4604 H6            1 RES     
   25697 C0        -364.7773  -267.7773   518.7425 C0            1 RES     
   25698 C0        -364.9110  -266.8763   520.3523 C0            1 RES     
   25699 C0        -366.2357  -266.9006   520.7697 C0            1 RES     
   25700 S1        -366.6342  -265.8572   522.0751 S1            1 RES     
   25701 C0        -365.1897  -265.1123   522.4125 C0            1 RES     
   25702 C0        -364.2773  -265.8155   521.3671 C0            1 RES     
   25703 C0        -367.1456  -267.3209   519.7033 C0            1 RES     
   25704 C0        -366.1589  -267.0780   518.5729 C0            1 RES     
   25705 C0        -366.3298  -265.8424   518.0290 C0            1 RES     
   25706 C0        -367.4448  -265.1392   518.4785 C0            1 RES     
   25707 S1        -368.4666  -266.0472   519.6064 S1            1 RES     
   25708 H2        -363.2616  -265.4467   521.2895 H2            1 RES     
   25709 H2        -365.5711  -265.3354   517.4556 H2            1 RES     
   25710 N3        -366.9168  -262.5260   524.9189 N3            1 RES     
   25711 C0        -366.6332  -263.4409   523.9792 C0            1 RES     
   25712 C0        -365.2886  -263.9217   523.6144 C0            1 RES     
   25713 C0        -364.3051  -263.2098   524.4571 C0            1 RES     
   25714 N3        -362.9464  -263.3831   524.4031 N3            1 RES     
   25715 S1        -362.3703  -262.3604   525.5853 S1            1 RES     
   25716 N3        -363.7320  -261.6474   526.1915 N3            1 RES     
   25717 C0        -364.6996  -262.2234   525.4656 C0            1 RES     
   25718 C0        -366.0079  -261.8751   525.6960 C0            1 RES     
   25719 H4        -367.5004  -263.8094   523.4780 H4            1 RES     
   25720 C5        -367.6212  -283.5814   507.8633 C5            1 RES     
   25721 C5        -367.3232  -282.4605   508.8992 C5            1 RES     
   25722 C5        -366.2580  -281.4216   508.4173 C5            1 RES     
   25723 C5        -366.0890  -280.0572   509.2468 C5            1 RES     
   25724 C5        -365.3705  -280.0346   510.6644 C5            1 RES     
   25725 C5        -365.3848  -278.7081   511.6730 C5            1 RES     
   25726 C5        -364.5040  -277.3156   511.5363 C5            1 RES     
   25727 C5        -364.1990  -276.0654   512.7296 C5            1 RES     
   25728 C5        -365.0227  -274.6480   513.2013 C5            1 RES     
   25729 C5        -364.9211  -273.3434   514.4389 C5            1 RES     
   25730 C5        -364.1155  -271.7741   514.6904 C5            1 RES     
   25731 C5        -362.8201  -272.0582   513.7339 C5            1 RES     
   25732 C5        -361.8945  -273.3393   513.9602 C5            1 RES     
   25733 C5        -361.0295  -273.8018   512.7087 C5            1 RES     
   25734 C5        -359.9827  -274.9495   512.9794 C5            1 RES     
   25735 C5        -359.0487  -274.6773   514.1789 C5            1 RES     
   25736 C5        -358.3032  -273.3226   514.1080 C5            1 RES     
   25737 C5        -356.7821  -273.3960   513.9314 C5            1 RES     
   25738 C5        -356.3204  -274.0930   512.6562 C5            1 RES     
   25739 C5        -364.2051  -270.1974   515.8765 C5            1 RES     
   25740 C0        -364.6103  -269.4325   517.6322 C0            1 RES     
   25741 C5        -364.1962  -270.6058   518.5569 C5            1 RES     
   25742 C5        -364.5945  -272.0809   518.0660 C5            1 RES     
   25743 C5        -366.0271  -272.4854   518.4540 C5            1 RES     
   25744 C5        -367.1670  -271.5023   518.1008 C5            1 RES     
   25745 C5        -367.2428  -271.0572   516.6240 C5            1 RES     
   25746 C5        -368.5475  -270.3772   516.2302 C5            1 RES     
   25747 C5        -368.8812  -269.1899   517.1341 C5            1 RES     
   25748 C5        -370.3007  -268.6986   516.8698 C5            1 RES     
   25749 C5        -370.7181  -267.7482   517.9838 C5            1 RES     
   25750 C5        -372.1804  -267.3723   517.9142 C5            1 RES     
   25751 C5        -363.5222  -273.1347   518.5072 C5            1 RES     
   25752 C5        -363.3951  -274.5478   517.8190 C5            1 RES     
   25753 C5        -364.3934  -275.7081   518.0815 C5            1 RES     
   25754 C5        -364.5639  -276.0025   519.5774 C5            1 RES     
   25755 C5        -365.2895  -277.3351   519.8704 C5            1 RES     
   25756 C5        -365.7684  -277.4171   521.3366 C5            1 RES     
   25757 C5        -364.6776  -277.2579   522.4164 C5            1 RES     
   25758 C5        -363.6450  -278.3983   522.4870 C5            1 RES     
   25759 C5        -364.2302  -279.7845   522.8222 C5            1 RES     
   25760 C5        -364.9514  -279.8305   524.1722 C5            1 RES     
   25761 H6        -368.0146  -283.1639   506.9084 H6            1 RES     
   25762 H6        -366.7270  -284.1983   507.6312 H6            1 RES     
   25763 H6        -368.4084  -284.2723   508.2501 H6            1 RES     
   25764 H6        -368.2899  -281.9416   509.0672 H6            1 RES     
   25765 H6        -366.9981  -282.9381   509.8456 H6            1 RES     
   25766 H6        -365.2881  -281.9439   508.2547 H6            1 RES     
   25767 H6        -366.6193  -281.1216   507.4047 H6            1 RES     
   25768 H6        -367.1119  -279.6469   509.3529 H6            1 RES     
   25769 H6        -365.5026  -279.3829   508.5908 H6            1 RES     
   25770 H6        -364.3343  -280.4223   510.5220 H6            1 RES     
   25771 H6        -365.9035  -280.8461   511.2156 H6            1 RES     
   25772 H6        -365.0179  -279.1651   512.6187 H6            1 RES     
   25773 H6        -366.4500  -278.4576   511.8166 H6            1 RES     
   25774 H6        -363.4977  -277.7753   511.3706 H6            1 RES     
   25775 H6        -364.7580  -276.8582   510.5581 H6            1 RES     
   25776 H6        -363.2256  -275.7032   512.3385 H6            1 RES     
   25777 H6        -363.9428  -276.6690   513.6266 H6            1 RES     
   25778 H6        -365.2066  -274.1336   512.2356 H6            1 RES     
   25779 H6        -365.9777  -275.1392   513.4780 H6            1 RES     
   25780 H6        -364.7892  -273.9205   515.3591 H6            1 RES     
   25781 H6        -365.9752  -273.0361   514.4326 H6            1 RES     
   25782 H6        -364.6641  -271.2235   513.8936 H6            1 RES     
   25783 H6        -362.2048  -271.1544   513.5518 H6            1 RES     
   25784 H6        -363.2510  -272.2953   512.7252 H6            1 RES     
   25785 H6        -362.4885  -274.2363   514.2249 H6            1 RES     
   25786 H6        -361.2334  -273.1007   514.8077 H6            1 RES     
   25787 H6        -360.4970  -272.9391   512.2749 H6            1 RES     
   25788 H6        -361.6807  -274.1610   511.8780 H6            1 RES     
   25789 H6        -359.3618  -275.1223   512.0672 H6            1 RES     
   25790 H6        -360.5080  -275.9118   513.1812 H6            1 RES     
   25791 H6        -359.7039  -274.6736   515.0720 H6            1 RES     
   25792 H6        -358.3394  -275.5174   514.3613 H6            1 RES     
   25793 H6        -358.7204  -272.6546   513.3364 H6            1 RES     
   25794 H6        -358.4720  -272.8063   515.0761 H6            1 RES     
   25795 H6        -356.3344  -273.9101   514.8076 H6            1 RES     
   25796 H6        -356.4054  -272.3491   513.9134 H6            1 RES     
   25797 H6        -356.7488  -273.6031   511.7576 H6            1 RES     
   25798 H6        -355.2114  -274.0295   512.6016 H6            1 RES     
   25799 H6        -356.6053  -275.1649   512.6715 H6            1 RES     
   25800 H6        -364.8482  -269.5371   515.2509 H6            1 RES     
   25801 H6        -363.2176  -269.7403   515.6546 H6            1 RES     
   25802 H6        -363.0937  -270.5089   518.5767 H6            1 RES     
   25803 H6        -364.5838  -270.4299   519.5795 H6            1 RES     
   25804 H6        -364.5514  -272.1758   516.9972 H6            1 RES     
   25805 H6        -366.2507  -273.4485   517.9620 H6            1 RES     
   25806 H6        -366.0626  -272.6418   519.5487 H6            1 RES     
   25807 H6        -368.1119  -272.0214   518.3647 H6            1 RES     
   25808 H6        -367.0659  -270.6071   518.7498 H6            1 RES     
   25809 H6        -366.4977  -270.3087   516.4395 H6            1 RES     
   25810 H6        -367.0860  -271.9158   515.9516 H6            1 RES     
   25811 H6        -368.4805  -270.0293   515.1731 H6            1 RES     
   25812 H6        -369.3456  -271.1421   516.3029 H6            1 RES     
   25813 H6        -368.8632  -269.5410   518.1831 H6            1 RES     
   25814 H6        -368.1366  -268.3686   517.0231 H6            1 RES     
   25815 H6        -370.3726  -268.2101   515.8729 H6            1 RES     
   25816 H6        -370.9814  -269.5749   516.8998 H6            1 RES     
   25817 H6        -370.1213  -266.8312   517.8884 H6            1 RES     
   25818 H6        -370.5453  -268.2377   518.9719 H6            1 RES     
   25819 H6        -372.3804  -266.8183   516.9759 H6            1 RES     
   25820 H6        -372.4212  -266.7273   518.7864 H6            1 RES     
   25821 H6        -372.8051  -268.2885   517.9631 H6            1 RES     
   25822 H6        -363.5204  -273.2370   519.6070 H6            1 RES     
   25823 H6        -362.5553  -272.6673   518.2122 H6            1 RES     
   25824 H6        -363.2658  -274.4342   516.7260 H6            1 RES     
   25825 H6        -362.4180  -274.9483   518.1668 H6            1 RES     
   25826 H6        -365.3833  -275.5316   517.6115 H6            1 RES     
   25827 H6        -363.9656  -276.6151   517.5893 H6            1 RES     
   25828 H6        -365.1415  -275.1560   520.0014 H6            1 RES     
   25829 H6        -363.5654  -276.0528   520.0614 H6            1 RES     
   25830 H6        -364.6295  -278.1969   519.6173 H6            1 RES     
   25831 H6        -366.1992  -277.4152   519.2362 H6            1 RES     
   25832 H6        -366.3249  -278.3644   521.4985 H6            1 RES     
   25833 H6        -366.4963  -276.5901   521.4826 H6            1 RES     
   25834 H6        -365.1750  -277.1672   523.4035 H6            1 RES     
   25835 H6        -364.1427  -276.2987   522.2593 H6            1 RES     
   25836 H6        -363.0981  -278.4616   521.5228 H6            1 RES     
   25837 H6        -362.9037  -278.1375   523.2749 H6            1 RES     
   25838 H6        -364.9242  -280.1149   522.0225 H6            1 RES     
   25839 H6        -363.3889  -280.5104   522.8593 H6            1 RES     
   25840 H6        -364.2662  -279.5222   524.9905 H6            1 RES     
   25841 H6        -365.8446  -279.1727   524.1726 H6            1 RES     
   25842 H6        -365.2979  -280.8664   524.3717 H6            1 RES     
   25843 C0        -368.0438  -257.3451   527.2156 C0            1 RES     
   25844 C0        -369.3470  -258.5943   526.8125 C0            1 RES     
   25845 C0        -369.2650  -259.6370   527.7267 C0            1 RES     
   25846 S1        -370.1719  -261.0459   527.3468 S1            1 RES     
   25847 C0        -370.8853  -260.6524   525.9005 C0            1 RES     
   25848 C0        -370.3501  -259.2023   525.7258 C0            1 RES     
   25849 C0        -368.0205  -259.6035   528.4960 C0            1 RES     
   25850 C0        -367.2918  -258.6692   527.5438 C0            1 RES     
   25851 C0        -366.5446  -259.3678   526.6464 C0            1 RES     
   25852 C0        -366.4580  -260.7386   526.8774 C0            1 RES     
   25853 S1        -367.2712  -261.2757   528.3574 S1            1 RES     
   25854 H2        -370.5843  -258.7126   524.7882 H2            1 RES     
   25855 H2        -366.2094  -258.9599   525.7068 H2            1 RES     
   25856 N3        -372.1976  -264.3832   525.3412 N3            1 RES     
   25857 C0        -371.5681  -263.2678   525.7413 C0            1 RES     
   25858 C0        -371.7812  -261.9116   525.2051 C0            1 RES     
   25859 C0        -372.8019  -261.9972   524.1397 C0            1 RES     
   25860 N3        -373.2608  -260.9393   523.3986 N3            1 RES     
   25861 S1        -374.4035  -261.6237   522.3982 S1            1 RES     
   25862 N3        -374.3724  -263.2266   522.7981 N3            1 RES     
   25863 C0        -373.4448  -263.2587   523.7643 C0            1 RES     
   25864 C0        -373.1403  -264.4572   524.3617 C0            1 RES     
   25865 H4        -370.8525  -263.4445   526.5132 H4            1 RES     
   25866 C5        -359.3569  -245.3272   539.7184 C5            1 RES     
   25867 C5        -360.2511  -246.2104   538.8026 C5            1 RES     
   25868 C5        -360.0298  -245.9624   537.2743 C5            1 RES     
   25869 C5        -360.6513  -247.0121   536.2302 C5            1 RES     
   25870 C5        -362.2113  -247.0536   535.9285 C5            1 RES     
   25871 C5        -362.9386  -248.2701   535.0521 C5            1 RES     
   25872 C5        -362.9174  -248.4977   533.4146 C5            1 RES     
   25873 C5        -363.9400  -249.5154   532.4152 C5            1 RES     
   25874 C5        -363.8707  -251.1463   531.9199 C5            1 RES     
   25875 C5        -364.8537  -252.3536   531.0143 C5            1 RES     
   25876 C5        -365.1375  -252.8863   529.3379 C5            1 RES     
   25877 C5        -364.7578  -251.4717   528.6111 C5            1 RES     
   25878 C5        -365.4870  -250.1124   529.0230 C5            1 RES     
   25879 C5        -364.7089  -248.7714   528.6702 C5            1 RES     
   25880 C5        -365.5022  -247.4298   528.9089 C5            1 RES     
   25881 C5        -366.9002  -247.4018   528.2532 C5            1 RES     
   25882 C5        -366.8973  -247.7222   526.7388 C5            1 RES     
   25883 C5        -367.2859  -246.5715   525.8032 C5            1 RES     
   25884 C5        -366.3776  -245.3494   525.8830 C5            1 RES     
   25885 C5        -365.9644  -254.3773   528.3409 C5            1 RES     
   25886 C0        -367.3261  -255.7794   528.2323 C0            1 RES     
   25887 C5        -368.5018  -255.0931   528.9738 C5            1 RES     
   25888 C5        -368.1278  -254.2540   530.2897 C5            1 RES     
   25889 C5        -368.0371  -255.1196   531.5582 C5            1 RES     
   25890 C5        -367.1592  -256.3907   531.4939 C5            1 RES     
   25891 C5        -365.7031  -256.1837   531.0230 C5            1 RES     
   25892 C5        -364.7744  -257.3612   531.2894 C5            1 RES     
   25893 C5        -365.3124  -258.6698   530.7097 C5            1 RES     
   25894 C5        -364.4906  -259.8538   531.2087 C5            1 RES     
   25895 C5        -365.2282  -261.1468   530.8882 C5            1 RES     
   25896 C5        -364.5880  -262.3585   531.5261 C5            1 RES     
   25897 C5        -369.0734  -253.0166   530.4615 C5            1 RES     
   25898 C5        -368.6948  -251.7854   531.3712 C5            1 RES     
   25899 C5        -368.7556  -251.8307   532.9223 C5            1 RES     
   25900 C5        -370.1193  -252.3082   533.4380 C5            1 RES     
   25901 C5        -370.3309  -252.0694   534.9501 C5            1 RES     
   25902 C5        -371.5259  -252.8810   535.4972 C5            1 RES     
   25903 C5        -372.8860  -252.6307   534.8128 C5            1 RES     
   25904 C5        -373.4886  -251.2303   535.0305 C5            1 RES     
   25905 C5        -373.7971  -250.8771   536.4990 C5            1 RES     
   25906 C5        -374.7933  -251.8346   537.1590 C5            1 RES     
   25907 H6        -358.2736  -245.5107   539.5348 H6            1 RES     
   25908 H6        -359.5527  -244.2414   539.5892 H6            1 RES     
   25909 H6        -359.5373  -245.5702   540.7931 H6            1 RES     
   25910 H6        -359.9851  -247.2604   539.0448 H6            1 RES     
   25911 H6        -361.3113  -246.0324   539.0744 H6            1 RES     
   25912 H6        -360.3025  -244.9100   537.0333 H6            1 RES     
   25913 H6        -358.9222  -246.0286   537.1525 H6            1 RES     
   25914 H6        -360.3244  -248.0093   536.5833 H6            1 RES     
   25915 H6        -360.1537  -246.7975   535.2633 H6            1 RES     
   25916 H6        -362.5061  -246.0482   535.5453 H6            1 RES     
   25917 H6        -362.6518  -247.1067   536.9529 H6            1 RES     
   25918 H6        -364.0099  -248.0764   535.2815 H6            1 RES     
   25919 H6        -362.6551  -249.2090   535.5582 H6            1 RES     
   25920 H6        -363.1908  -247.4590   533.1024 H6            1 RES     
   25921 H6        -361.8561  -248.6028   533.1089 H6            1 RES     
   25922 H6        -363.8710  -248.9359   531.4713 H6            1 RES     
   25923 H6        -364.9489  -249.2869   532.8208 H6            1 RES     
   25924 H6        -362.8374  -251.2439   531.5278 H6            1 RES     
   25925 H6        -363.8600  -251.5900   532.9363 H6            1 RES     
   25926 H6        -365.8359  -252.2352   531.4818 H6            1 RES     
   25927 H6        -364.4274  -253.2659   531.4518 H6            1 RES     
   25928 H6        -364.1250  -253.3178   529.1713 H6            1 RES     
   25929 H6        -364.6734  -251.5555   527.5090 H6            1 RES     
   25930 H6        -363.7095  -251.2475   528.9427 H6            1 RES     
   25931 H6        -365.6543  -250.0484   530.1164 H6            1 RES     
   25932 H6        -366.4683  -250.1210   528.5237 H6            1 RES     
   25933 H6        -364.3689  -248.7938   527.6214 H6            1 RES     
   25934 H6        -363.7646  -248.6858   529.2570 H6            1 RES     
   25935 H6        -364.9070  -246.5626   528.5328 H6            1 RES     
   25936 H6        -365.6455  -247.2546   530.0004 H6            1 RES     
   25937 H6        -367.4908  -248.1785   528.7774 H6            1 RES     
   25938 H6        -367.4461  -246.4529   528.4623 H6            1 RES     
   25939 H6        -365.9372  -248.1472   526.4022 H6            1 RES     
   25940 H6        -367.6534  -248.5177   526.5721 H6            1 RES     
   25941 H6        -368.3303  -246.2610   526.0160 H6            1 RES     
   25942 H6        -367.2467  -246.9689   524.7645 H6            1 RES     
   25943 H6        -365.3230  -245.6232   525.6734 H6            1 RES     
   25944 H6        -366.7118  -244.6115   525.1209 H6            1 RES     
   25945 H6        -366.4506  -244.8725   526.8818 H6            1 RES     
   25946 H6        -365.0599  -255.0052   528.1721 H6            1 RES     
   25947 H6        -366.0424  -253.9099   527.3365 H6            1 RES     
   25948 H6        -368.8975  -254.4080   528.1996 H6            1 RES     
   25949 H6        -369.2814  -255.8431   529.2123 H6            1 RES     
   25950 H6        -367.1712  -253.7738   530.2036 H6            1 RES     
   25951 H6        -367.6476  -254.4840   532.3731 H6            1 RES     
   25952 H6        -369.0579  -255.4453   531.8338 H6            1 RES     
   25953 H6        -367.1444  -256.8050   532.5235 H6            1 RES     
   25954 H6        -367.6601  -257.1244   530.8280 H6            1 RES     
   25955 H6        -365.6858  -256.0799   529.9561 H6            1 RES     
   25956 H6        -365.2667  -255.2883   531.4938 H6            1 RES     
   25957 H6        -363.7709  -257.1486   530.8527 H6            1 RES     
   25958 H6        -364.6721  -257.4500   532.3890 H6            1 RES     
   25959 H6        -366.3391  -258.8191   531.0936 H6            1 RES     
   25960 H6        -365.3518  -258.6391   529.5967 H6            1 RES     
   25961 H6        -363.4722  -259.8471   530.7609 H6            1 RES     
   25962 H6        -364.4074  -259.7765   532.3129 H6            1 RES     
   25963 H6        -365.2151  -261.2834   529.7986 H6            1 RES     
   25964 H6        -366.2744  -261.0807   531.2713 H6            1 RES     
   25965 H6        -363.5684  -262.5021   531.1173 H6            1 RES     
   25966 H6        -365.2108  -263.2493   531.2957 H6            1 RES     
   25967 H6        -364.5481  -262.2245   532.6272 H6            1 RES     
   25968 H6        -370.1042  -253.3528   530.6728 H6            1 RES     
   25969 H6        -369.0751  -252.5432   529.4535 H6            1 RES     
   25970 H6        -367.7153  -251.3691   531.0685 H6            1 RES     
   25971 H6        -369.4228  -250.9917   531.0954 H6            1 RES     
   25972 H6        -367.9438  -252.4470   533.3617 H6            1 RES     
   25973 H6        -368.5891  -250.7853   533.2793 H6            1 RES     
   25974 H6        -370.1787  -253.3927   533.2143 H6            1 RES     
   25975 H6        -370.9282  -251.7709   532.8989 H6            1 RES     
   25976 H6        -370.4608  -250.9813   535.1538 H6            1 RES     
   25977 H6        -369.4344  -252.4088   535.5134 H6            1 RES     
   25978 H6        -371.6191  -252.7220   536.5923 H6            1 RES     
   25979 H6        -371.2783  -253.9544   535.3501 H6            1 RES     
   25980 H6        -373.6065  -253.3889   535.1817 H6            1 RES     
   25981 H6        -372.7878  -252.8136   533.7229 H6            1 RES     
   25982 H6        -372.8027  -250.4640   534.6120 H6            1 RES     
   25983 H6        -374.4401  -251.1764   534.4560 H6            1 RES     
   25984 H6        -372.8619  -250.8504   537.0949 H6            1 RES     
   25985 H6        -374.2387  -249.8570   536.5193 H6            1 RES     
   25986 H6        -375.7458  -251.8602   536.5878 H6            1 RES     
   25987 H6        -374.3779  -252.8608   537.2282 H6            1 RES     
   25988 H6        -375.0090  -251.4900   538.1922 H6            1 RES     
   25989 C0        -373.1419  -269.2663   522.4001 C0            1 RES     
   25990 C0        -372.4935  -269.2205   524.1318 C0            1 RES     
   25991 C0        -373.5220  -268.8399   524.9844 C0            1 RES     
   25992 S1        -373.0597  -268.4309   526.5878 S1            1 RES     
   25993 C0        -371.4129  -268.6383   526.5663 C0            1 RES     
   25994 C0        -371.2252  -269.1247   525.1008 C0            1 RES     
   25995 C0        -374.6691  -268.2917   524.2597 C0            1 RES     
   25996 C0        -373.9099  -268.0358   522.9679 C0            1 RES     
   25997 C0        -373.4518  -266.7555   522.9131 C0            1 RES     
   25998 C0        -373.9006  -265.9148   523.9288 C0            1 RES     
   25999 S1        -375.0575  -266.6725   525.0369 S1            1 RES     
   26000 H2        -370.2037  -269.2514   524.7629 H2            1 RES     
   26001 H2        -372.6431  -266.4406   522.2741 H2            1 RES     
   26002 N3        -370.9880  -266.9739   530.1723 N3            1 RES     
   26003 C0        -371.4142  -267.3945   528.9715 C0            1 RES     
   26004 C0        -370.6411  -268.2010   528.0102 C0            1 RES     
   26005 C0        -369.3081  -268.4551   528.5957 C0            1 RES     
   26006 N3        -368.3031  -269.1661   527.9929 N3            1 RES     
   26007 S1        -367.0761  -269.1490   529.1196 S1            1 RES     
   26008 N3        -367.6958  -268.2614   530.3679 N3            1 RES     
   26009 C0        -368.9217  -267.9603   529.9191 C0            1 RES     
   26010 C0        -369.7602  -267.2134   530.7098 C0            1 RES     
   26011 H4        -372.4071  -267.0760   528.7441 H4            1 RES     
   26012 C5        -385.9694  -275.4920   509.2505 C5            1 RES     
   26013 C5        -384.9385  -275.2104   510.3803 C5            1 RES     
   26014 C5        -383.5700  -274.6571   509.8636 C5            1 RES     
   26015 C5        -382.5426  -274.0370   510.9306 C5            1 RES     
   26016 C5        -381.7160  -274.9668   511.9197 C5            1 RES     
   26017 C5        -380.8307  -274.3750   513.2015 C5            1 RES     
   26018 C5        -379.3613  -273.6180   513.1607 C5            1 RES     
   26019 C5        -378.2279  -273.3087   514.4644 C5            1 RES     
   26020 C5        -378.0393  -272.0499   515.6001 C5            1 RES     
   26021 C5        -377.0347  -271.6280   517.0343 C5            1 RES     
   26022 C5        -375.4666  -270.8725   517.4153 C5            1 RES     
   26023 C5        -374.7195  -271.2410   516.0083 C5            1 RES     
   26024 C5        -374.6373  -272.7487   515.4897 C5            1 RES     
   26025 C5        -374.3880  -272.9351   513.9304 C5            1 RES     
   26026 C5        -374.1257  -274.4122   513.4450 C5            1 RES     
   26027 C5        -373.0197  -275.1457   514.2348 C5            1 RES     
   26028 C5        -371.6713  -274.3876   514.2913 C5            1 RES     
   26029 C5        -370.4979  -275.0381   513.5493 C5            1 RES     
   26030 C5        -370.7117  -275.2185   512.0504 C5            1 RES     
   26031 C5        -374.4756  -270.1313   518.9546 C5            1 RES     
   26032 C0        -374.1011  -270.1366   520.8759 C0            1 RES     
   26033 C5        -374.2648  -271.6449   521.1943 C5            1 RES     
   26034 C5        -375.4865  -272.4005   520.4786 C5            1 RES     
   26035 C5        -376.8185  -272.2553   521.2343 C5            1 RES     
   26036 C5        -377.2612  -270.8288   521.6336 C5            1 RES     
   26037 C5        -377.3133  -269.7920   520.4903 C5            1 RES     
   26038 C5        -378.0651  -268.5108   520.8264 C5            1 RES     
   26039 C5        -377.5346  -267.8399   522.0938 C5            1 RES     
   26040 C5        -378.4640  -266.7125   522.5315 C5            1 RES     
   26041 C5        -378.0994  -266.2827   523.9460 C5            1 RES     
   26042 C5        -379.0965  -265.3128   524.5375 C5            1 RES     
   26043 C5        -375.1241  -273.8914   520.1613 C5            1 RES     
   26044 C5        -375.9139  -274.7430   519.0947 C5            1 RES     
   26045 C5        -377.3303  -275.3230   519.3578 C5            1 RES     
   26046 C5        -377.3928  -276.1420   520.6535 C5            1 RES     
   26047 C5        -378.6771  -276.9903   520.7918 C5            1 RES     
   26048 C5        -378.8786  -277.4944   522.2380 C5            1 RES     
   26049 C5        -377.7263  -278.3320   522.8310 C5            1 RES     
   26050 C5        -377.5037  -279.7082   522.1766 C5            1 RES     
   26051 C5        -378.6962  -280.6791   522.2843 C5            1 RES     
   26052 C5        -379.0943  -280.9964   523.7285 C5            1 RES     
   26053 H6        -386.2124  -274.5685   508.6770 H6            1 RES     
   26054 H6        -385.6182  -276.2646   508.5336 H6            1 RES     
   26055 H6        -386.9332  -275.8547   509.6819 H6            1 RES     
   26056 H6        -385.4135  -274.4538   511.0390 H6            1 RES     
   26057 H6        -384.7859  -276.1469   510.9541 H6            1 RES     
   26058 H6        -383.0935  -275.4202   509.2075 H6            1 RES     
   26059 H6        -383.8611  -273.8136   509.1929 H6            1 RES     
   26060 H6        -383.1337  -273.3126   511.5238 H6            1 RES     
   26061 H6        -381.7952  -273.4789   510.3317 H6            1 RES     
   26062 H6        -381.1074  -275.6633   511.2961 H6            1 RES     
   26063 H6        -382.5126  -275.6088   512.3663 H6            1 RES     
   26064 H6        -380.6327  -275.3135   513.7652 H6            1 RES     
   26065 H6        -381.5387  -273.7731   513.7968 H6            1 RES     
   26066 H6        -378.8208  -274.3470   512.5067 H6            1 RES     
   26067 H6        -379.4721  -272.7145   512.5266 H6            1 RES     
   26068 H6        -377.2948  -273.2825   513.8641 H6            1 RES     
   26069 H6        -378.2093  -274.2909   514.9835 H6            1 RES     
   26070 H6        -378.0592  -271.1385   514.9676 H6            1 RES     
   26071 H6        -379.0471  -272.1339   516.0552 H6            1 RES     
   26072 H6        -377.0993  -272.5451   517.6278 H6            1 RES     
   26073 H6        -377.7263  -270.9202   517.5100 H6            1 RES     
   26074 H6        -375.7373  -269.8470   517.0777 H6            1 RES     
   26075 H6        -373.7452  -270.7274   515.8834 H6            1 RES     
   26076 H6        -375.3646  -270.7872   515.2100 H6            1 RES     
   26077 H6        -375.5772  -273.3033   515.6815 H6            1 RES     
   26078 H6        -373.8292  -273.2315   516.0608 H6            1 RES     
   26079 H6        -373.5444  -272.3050   513.6024 H6            1 RES     
   26080 H6        -375.2521  -272.5582   513.3351 H6            1 RES     
   26081 H6        -373.8607  -274.4156   512.3599 H6            1 RES     
   26082 H6        -375.0557  -275.0198   513.5367 H6            1 RES     
   26083 H6        -373.4095  -275.2503   515.2663 H6            1 RES     
   26084 H6        -372.8768  -276.1947   513.8867 H6            1 RES     
   26085 H6        -371.7655  -273.3398   513.9613 H6            1 RES     
   26086 H6        -371.3677  -274.3410   515.3580 H6            1 RES     
   26087 H6        -370.2767  -276.0259   514.0051 H6            1 RES     
   26088 H6        -369.6129  -274.3806   513.6995 H6            1 RES     
   26089 H6        -370.9341  -274.2481   511.5606 H6            1 RES     
   26090 H6        -369.7795  -275.6345   511.6090 H6            1 RES     
   26091 H6        -371.5361  -275.9349   511.8564 H6            1 RES     
   26092 H6        -374.7352  -269.0547   518.8350 H6            1 RES     
   26093 H6        -373.4513  -270.1126   518.5259 H6            1 RES     
   26094 H6        -373.3075  -272.0651   520.8307 H6            1 RES     
   26095 H6        -374.3199  -271.7911   522.2909 H6            1 RES     
   26096 H6        -375.6753  -272.0184   519.4929 H6            1 RES     
   26097 H6        -377.6139  -272.6886   520.6023 H6            1 RES     
   26098 H6        -376.7587  -272.8481   522.1666 H6            1 RES     
   26099 H6        -378.2784  -270.9334   522.0654 H6            1 RES     
   26100 H6        -376.5784  -270.4642   522.4296 H6            1 RES     
   26101 H6        -376.3194  -269.4557   520.2697 H6            1 RES     
   26102 H6        -377.7689  -270.2316   519.5886 H6            1 RES     
   26103 H6        -377.9871  -267.7995   519.9715 H6            1 RES     
   26104 H6        -379.1293  -268.7868   520.9632 H6            1 RES     
   26105 H6        -377.5463  -268.5877   522.9090 H6            1 RES     
   26106 H6        -376.4890  -267.4793   521.9594 H6            1 RES     
   26107 H6        -378.4118  -265.8570   521.8223 H6            1 RES     
   26108 H6        -379.5009  -267.1082   522.5547 H6            1 RES     
   26109 H6        -377.1191  -265.7891   523.9082 H6            1 RES     
   26110 H6        -378.0712  -267.1796   524.6096 H6            1 RES     
   26111 H6        -379.1033  -264.3758   523.9467 H6            1 RES     
   26112 H6        -378.7958  -265.0915   525.5840 H6            1 RES     
   26113 H6        -380.1067  -265.7728   524.5449 H6            1 RES     
   26114 H6        -375.0029  -274.4608   521.1001 H6            1 RES     
   26115 H6        -374.1226  -273.8230   519.6789 H6            1 RES     
   26116 H6        -375.9206  -274.2258   518.1167 H6            1 RES     
   26117 H6        -375.2822  -275.6412   518.9214 H6            1 RES     
   26118 H6        -378.1163  -274.5394   519.3628 H6            1 RES     
   26119 H6        -377.5627  -276.0001   518.5002 H6            1 RES     
   26120 H6        -377.3274  -275.4157   521.4889 H6            1 RES     
   26121 H6        -376.5276  -276.8373   520.6946 H6            1 RES     
   26122 H6        -378.6564  -277.8410   520.0719 H6            1 RES     
   26123 H6        -379.5662  -276.3691   520.5473 H6            1 RES     
   26124 H6        -379.8322  -278.0589   522.3105 H6            1 RES     
   26125 H6        -378.9913  -276.5933   522.8786 H6            1 RES     
   26126 H6        -377.9239  -278.4804   523.9122 H6            1 RES     
   26127 H6        -376.7829  -277.7509   522.7742 H6            1 RES     
   26128 H6        -377.2468  -279.5705   521.1052 H6            1 RES     
   26129 H6        -376.6274  -280.1826   522.6719 H6            1 RES     
   26130 H6        -379.5745  -280.2746   521.7407 H6            1 RES     
   26131 H6        -378.4056  -281.6329   521.7925 H6            1 RES     
   26132 H6        -378.2326  -281.4225   524.2854 H6            1 RES     
   26133 H6        -379.4591  -280.0895   524.2527 H6            1 RES     
   26134 H6        -379.9194  -281.7394   523.7304 H6            1 RES     
   26135 C0        -368.6684  -263.4591   534.1286 C0            1 RES     
   26136 C0        -370.4898  -263.6780   533.8923 C0            1 RES     
   26137 C0        -370.8542  -264.9331   534.3629 C0            1 RES     
   26138 S1        -372.4367  -265.4617   533.9532 S1            1 RES     
   26139 C0        -373.0332  -264.1973   533.0585 C0            1 RES     
   26140 C0        -371.8204  -263.2259   533.1294 C0            1 RES     
   26141 C0        -369.6959  -265.7986   534.5886 C0            1 RES     
   26142 C0        -368.7355  -264.9691   533.7518 C0            1 RES     
   26143 C0        -368.6564  -265.4447   532.4792 C0            1 RES     
   26144 C0        -369.3084  -266.6539   532.2502 C0            1 RES     
   26145 S1        -370.0330  -267.3712   533.6997 S1            1 RES     
   26146 H2        -371.8906  -262.3240   532.5332 H2            1 RES     
   26147 H2        -368.3072  -264.8572   531.6459 H2            1 RES     
   26148 N3        -376.2627  -266.2766   531.9628 N3            1 RES     
   26149 C0        -375.0661  -265.8632   532.4075 C0            1 RES     
   26150 C0        -374.5744  -264.4739   532.4104 C0            1 RES     
   26151 C0        -375.6263  -263.6162   531.8255 C0            1 RES     
   26152 N3        -375.5336  -262.2597   531.6518 N3            1 RES     
   26153 S1        -377.0068  -261.8438   530.9944 S1            1 RES     
   26154 N3        -377.8056  -263.2845   530.8671 N3            1 RES     
   26155 C0        -376.9108  -264.1486   531.3647 C0            1 RES     
   26156 C0        -377.2307  -265.4827   531.4280 C0            1 RES     
   26157 H4        -374.4558  -266.6601   532.7705 H4            1 RES     
   26158 C5        -352.9070  -263.4864   545.4332 C5            1 RES     
   26159 C5        -354.2738  -263.3727   544.7000 C5            1 RES     
   26160 C5        -354.2007  -262.5980   543.3434 C5            1 RES     
   26161 C5        -355.4576  -262.6776   542.3473 C5            1 RES     
   26162 C5        -356.8030  -261.8868   542.6486 C5            1 RES     
   26163 C5        -358.2119  -262.1242   541.7908 C5            1 RES     
   26164 C5        -358.5834  -261.5832   540.2732 C5            1 RES     
   26165 C5        -360.1429  -261.4805   539.4749 C5            1 RES     
   26166 C5        -361.0697  -262.5620   538.5361 C5            1 RES     
   26167 C5        -362.6870  -262.6662   537.7503 C5            1 RES     
   26168 C5        -363.4829  -262.2109   536.2225 C5            1 RES     
   26169 C5        -362.5053  -260.9531   535.8543 C5            1 RES     
   26170 C5        -362.2813  -259.7548   536.8853 C5            1 RES     
   26171 C5        -360.9590  -258.8965   536.6772 C5            1 RES     
   26172 C5        -360.8251  -257.6066   537.5741 C5            1 RES     
   26173 C5        -362.0565  -256.6760   537.5235 C5            1 RES     
   26174 C5        -362.4746  -256.2539   536.0941 C5            1 RES     
   26175 C5        -362.3042  -254.7696   535.7501 C5            1 RES     
   26176 C5        -360.8721  -254.2538   535.8402 C5            1 RES     
   26177 C5        -365.1446  -262.5646   535.2153 C5            1 RES     
   26178 C0        -367.0513  -263.0077   535.2156 C0            1 RES     
   26179 C5        -367.5122  -262.2832   536.5062 C5            1 RES     
   26180 C5        -366.5307  -262.3792   537.7722 C5            1 RES     
   26181 C5        -366.7329  -263.6577   538.6036 C5            1 RES     
   26182 C5        -366.7308  -265.0075   537.8496 C5            1 RES     
   26183 C5        -365.5023  -265.2800   536.9543 C5            1 RES     
   26184 C5        -365.3538  -266.7263   536.5002 C5            1 RES     
   26185 C5        -366.6115  -267.2509   535.8067 C5            1 RES     
   26186 C5        -366.5166  -268.7584   535.5954 C5            1 RES     
   26187 C5        -367.8871  -269.2979   535.2091 C5            1 RES     
   26188 C5        -367.9335  -270.8084   535.1795 C5            1 RES     
   26189 C5        -366.5895  -261.0736   538.6363 C5            1 RES     
   26190 C5        -365.4519  -260.6855   539.6572 C5            1 RES     
   26191 C5        -365.2780  -261.3834   541.0336 C5            1 RES     
   26192 C5        -366.5737  -261.3824   541.8549 C5            1 RES     
   26193 C5        -366.3717  -261.7750   543.3359 C5            1 RES     
   26194 C5        -367.7098  -262.1229   544.0248 C5            1 RES     
   26195 C5        -368.7917  -261.0230   543.9997 C5            1 RES     
   26196 C5        -368.4726  -259.7621   544.8245 C5            1 RES     
   26197 C5        -368.2933  -260.0033   546.3365 C5            1 RES     
   26198 C5        -369.5318  -260.6029   547.0084 C5            1 RES     
   26199 H6        -352.1535  -264.0263   544.8154 H6            1 RES     
   26200 H6        -352.4859  -262.4962   545.7092 H6            1 RES     
   26201 H6        -353.0167  -264.0738   546.3763 H6            1 RES     
   26202 H6        -354.5997  -264.4163   544.5079 H6            1 RES     
   26203 H6        -354.9974  -262.8866   545.3852 H6            1 RES     
   26204 H6        -353.8787  -261.5503   543.5397 H6            1 RES     
   26205 H6        -353.3523  -263.0847   542.8054 H6            1 RES     
   26206 H6        -355.6867  -263.7561   542.2457 H6            1 RES     
   26207 H6        -355.0873  -262.3003   541.3730 H6            1 RES     
   26208 H6        -356.5480  -260.8028   542.7140 H6            1 RES     
   26209 H6        -357.0279  -262.1890   543.6994 H6            1 RES     
   26210 H6        -358.9427  -261.6020   542.4474 H6            1 RES     
   26211 H6        -358.4196  -263.2060   541.8572 H6            1 RES     
   26212 H6        -358.2810  -260.5141   540.4031 H6            1 RES     
   26213 H6        -357.8238  -261.9978   539.5790 H6            1 RES     
   26214 H6        -359.9167  -260.6398   538.7866 H6            1 RES     
   26215 H6        -360.7752  -261.0370   540.2737 H6            1 RES     
   26216 H6        -360.3428  -262.9202   537.7782 H6            1 RES     
   26217 H6        -361.1439  -263.3642   539.2983 H6            1 RES     
   26218 H6        -363.3486  -262.3480   538.5616 H6            1 RES     
   26219 H6        -362.7743  -263.7600   537.7110 H6            1 RES     
   26220 H6        -362.9219  -262.9204   535.5737 H6            1 RES     
   26221 H6        -362.6595  -260.5659   534.8271 H6            1 RES     
   26222 H6        -361.4716  -261.3888   535.8227 H6            1 RES     
   26223 H6        -362.2071  -260.1170   537.9297 H6            1 RES     
   26224 H6        -363.1676  -259.1062   536.8071 H6            1 RES     
   26225 H6        -360.8620  -258.5980   535.6200 H6            1 RES     
   26226 H6        -360.0463  -259.5077   536.8686 H6            1 RES     
   26227 H6        -359.9186  -257.0266   537.2750 H6            1 RES     
   26228 H6        -360.6700  -257.8920   538.6404 H6            1 RES     
   26229 H6        -362.8854  -257.2534   537.9779 H6            1 RES     
   26230 H6        -361.9429  -255.7883   538.1878 H6            1 RES     
   26231 H6        -361.9800  -256.8596   535.3168 H6            1 RES     
   26232 H6        -363.5598  -256.4658   535.9956 H6            1 RES     
   26233 H6        -362.9510  -254.1610   536.4162 H6            1 RES     
   26234 H6        -362.6590  -254.6350   534.7040 H6            1 RES     
   26235 H6        -360.1962  -254.8398   535.1839 H6            1 RES     
   26236 H6        -360.8584  -253.1924   535.5082 H6            1 RES     
   26237 H6        -360.5073  -254.2938   536.8869 H6            1 RES     
   26238 H6        -364.7810  -263.3785   534.5472 H6            1 RES     
   26239 H6        -365.1103  -261.7196   534.4956 H6            1 RES     
   26240 H6        -367.5798  -261.2304   536.1710 H6            1 RES     
   26241 H6        -368.5264  -262.6294   536.7868 H6            1 RES     
   26242 H6        -365.4970  -262.3892   537.4814 H6            1 RES     
   26243 H6        -365.9318  -263.6966   539.3628 H6            1 RES     
   26244 H6        -367.7029  -263.5832   539.1304 H6            1 RES     
   26245 H6        -366.7833  -265.7945   538.6304 H6            1 RES     
   26246 H6        -367.6533  -265.0621   537.2344 H6            1 RES     
   26247 H6        -365.6018  -264.7325   536.0379 H6            1 RES     
   26248 H6        -364.5741  -264.9841   537.4688 H6            1 RES     
   26249 H6        -364.4864  -266.8097   535.8048 H6            1 RES     
   26250 H6        -365.1431  -267.3293   537.4054 H6            1 RES     
   26251 H6        -367.4713  -267.0844   536.4828 H6            1 RES     
   26252 H6        -366.8052  -266.7148   534.8494 H6            1 RES     
   26253 H6        -365.7529  -269.0039   534.8246 H6            1 RES     
   26254 H6        -366.2287  -269.2256   536.5603 H6            1 RES     
   26255 H6        -368.1268  -268.9258   534.2040 H6            1 RES     
   26256 H6        -368.6435  -268.9545   535.9545 H6            1 RES     
   26257 H6        -367.2459  -271.1890   534.3987 H6            1 RES     
   26258 H6        -368.9730  -271.1253   534.9475 H6            1 RES     
   26259 H6        -367.6501  -271.2110   536.1743 H6            1 RES     
   26260 H6        -367.5839  -260.9743   539.1071 H6            1 RES     
   26261 H6        -366.4901  -260.2559   537.8869 H6            1 RES     
   26262 H6        -364.4698  -260.6592   539.1483 H6            1 RES     
   26263 H6        -365.6508  -259.6229   539.9164 H6            1 RES     
   26264 H6        -364.8861  -262.4176   540.9392 H6            1 RES     
   26265 H6        -364.5053  -260.8009   541.5917 H6            1 RES     
   26266 H6        -367.2593  -262.1020   541.3630 H6            1 RES     
   26267 H6        -367.0230  -260.3668   541.8372 H6            1 RES     
   26268 H6        -365.8420  -260.9602   543.8816 H6            1 RES     
   26269 H6        -365.7373  -262.6858   543.4004 H6            1 RES     
   26270 H6        -367.5221  -262.4446   545.0710 H6            1 RES     
   26271 H6        -368.1261  -263.0034   543.4896 H6            1 RES     
   26272 H6        -369.7412  -261.4596   544.3709 H6            1 RES     
   26273 H6        -368.9876  -260.7245   542.9493 H6            1 RES     
   26274 H6        -367.5548  -259.2818   544.4249 H6            1 RES     
   26275 H6        -369.3120  -259.0446   544.6873 H6            1 RES     
   26276 H6        -367.4191  -260.6604   546.5223 H6            1 RES     
   26277 H6        -368.0853  -259.0223   546.8165 H6            1 RES     
   26278 H6        -370.4155  -259.9483   546.8512 H6            1 RES     
   26279 H6        -369.7503  -261.6169   546.6153 H6            1 RES     
   26280 H6        -369.3513  -260.6982   548.0998 H6            1 RES     
   26281 C0        -380.2122  -268.3581   528.2947 C0            1 RES     
   26282 C0        -379.3796  -269.3785   529.5935 C0            1 RES     
   26283 C0        -379.8719  -269.0066   530.8381 C0            1 RES     
   26284 S1        -379.0105  -269.6046   532.1990 S1            1 RES     
   26285 C0        -377.7839  -270.4840   531.5080 C0            1 RES     
   26286 C0        -378.1352  -270.2946   530.0045 C0            1 RES     
   26287 C0        -380.6211  -267.7506   530.7855 C0            1 RES     
   26288 C0        -380.0663  -267.3123   529.4399 C0            1 RES     
   26289 C0        -378.9914  -266.4925   529.5955 C0            1 RES     
   26290 C0        -378.7290  -266.0905   530.9029 C0            1 RES     
   26291 S1        -379.9161  -266.6626   532.0878 S1            1 RES     
   26292 H2        -377.4253  -270.6944   529.2904 H2            1 RES     
   26293 H2        -378.2588  -266.3203   528.8240 H2            1 RES     
   26294 N3        -375.9360  -270.9772   535.0145 N3            1 RES     
   26295 C0        -376.7098  -270.5831   533.9916 C0            1 RES     
   26296 C0        -376.6795  -271.1258   532.6217 C0            1 RES     
   26297 C0        -375.6378  -272.1728   532.5684 C0            1 RES     
   26298 N3        -375.3078  -272.9029   531.4562 N3            1 RES     
   26299 S1        -374.1155  -273.9323   531.9986 S1            1 RES     
   26300 N3        -373.9294  -273.5216   533.5882 N3            1 RES     
   26301 C0        -374.8357  -272.5460   533.7359 C0            1 RES     
   26302 C0        -374.9798  -271.9450   534.9623 C0            1 RES     
   26303 H4        -377.3806  -269.7952   534.2530 H4            1 RES     
   26304 C5        -396.2485  -261.7005   519.6500 C5            1 RES     
   26305 C5        -395.0692  -262.4385   520.3453 C5            1 RES     
   26306 C5        -393.7277  -262.3820   519.5433 C5            1 RES     
   26307 C5        -392.3738  -262.8266   520.2833 C5            1 RES     
   26308 C5        -392.0554  -264.3560   520.5765 C5            1 RES     
   26309 C5        -390.7988  -264.8554   521.5503 C5            1 RES     
   26310 C5        -389.1856  -264.8963   521.1899 C5            1 RES     
   26311 C5        -387.8794  -265.7353   522.0084 C5            1 RES     
   26312 C5        -386.8455  -265.3423   523.3071 C5            1 RES     
   26313 C5        -385.5612  -266.0946   524.3213 C5            1 RES     
   26314 C5        -383.8006  -266.3677   524.2955 C5            1 RES     
   26315 C5        -383.6203  -266.3595   522.6704 C5            1 RES     
   26316 C5        -384.4721  -267.3404   521.7423 C5            1 RES     
   26317 C5        -384.6218  -266.9027   520.2210 C5            1 RES     
   26318 C5        -385.3042  -267.9539   519.2642 C5            1 RES     
   26319 C5        -384.6808  -269.3651   519.3352 C5            1 RES     
   26320 C5        -383.1502  -269.3950   519.1058 C5            1 RES     
   26321 C5        -382.6715  -270.0904   517.8261 C5            1 RES     
   26322 C5        -383.1865  -269.4704   516.5317 C5            1 RES     
   26323 C5        -382.3336  -266.9119   525.5007 C5            1 RES     
   26324 C0        -381.7224  -267.9353   527.0533 C0            1 RES     
   26325 C5        -382.6412  -269.1800   526.9540 C5            1 RES     
   26326 C5        -384.1725  -268.9113   526.5562 C5            1 RES     
   26327 C5        -385.0588  -268.5457   527.7593 C5            1 RES     
   26328 C5        -384.5656  -267.4159   528.6924 C5            1 RES     
   26329 C5        -384.2168  -266.0767   528.0069 C5            1 RES     
   26330 C5        -384.0668  -264.8955   528.9567 C5            1 RES     
   26331 C5        -383.0583  -265.1702   530.0728 C5            1 RES     
   26332 C5        -383.1223  -264.0757   531.1330 C5            1 RES     
   26333 C5        -382.3595  -264.5304   532.3698 C5            1 RES     
   26334 C5        -382.5414  -263.5971   533.5448 C5            1 RES     
   26335 C5        -384.7538  -270.0922   525.7064 C5            1 RES     
   26336 C5        -386.0420  -269.9330   524.8109 C5            1 RES     
   26337 C5        -387.4781  -269.8765   525.3992 C5            1 RES     
   26338 C5        -387.7753  -271.0631   526.3251 C5            1 RES     
   26339 C5        -389.2723  -271.2184   526.6761 C5            1 RES     
   26340 C5        -389.4843  -272.1651   527.8781 C5            1 RES     
   26341 C5        -388.9123  -273.5904   527.7282 C5            1 RES     
   26342 C5        -389.5983  -274.4704   526.6667 C5            1 RES     
   26343 C5        -391.0932  -274.7482   526.9208 C5            1 RES     
   26344 C5        -391.3626  -275.4616   528.2487 C5            1 RES     
   26345 H6        -396.0270  -260.6185   519.5047 H6            1 RES     
   26346 H6        -396.5049  -262.1390   518.6621 H6            1 RES     
   26347 H6        -397.1675  -261.7492   520.2822 H6            1 RES     
   26348 H6        -394.9322  -261.9317   521.3232 H6            1 RES     
   26349 H6        -395.3717  -263.4907   520.5207 H6            1 RES     
   26350 H6        -393.8667  -262.8956   518.5652 H6            1 RES     
   26351 H6        -393.6055  -261.2979   519.3068 H6            1 RES     
   26352 H6        -392.3599  -262.2647   521.2373 H6            1 RES     
   26353 H6        -391.5501  -262.4556   519.6410 H6            1 RES     
   26354 H6        -392.0445  -264.8905   519.5973 H6            1 RES     
   26355 H6        -392.9903  -264.7030   521.0783 H6            1 RES     
   26356 H6        -391.0668  -265.9249   521.6994 H6            1 RES     
   26357 H6        -390.9479  -264.3382   522.5138 H6            1 RES     
   26358 H6        -389.2532  -265.4125   520.1998 H6            1 RES     
   26359 H6        -388.8770  -263.8614   520.9361 H6            1 RES     
   26360 H6        -387.1991  -265.8602   521.1405 H6            1 RES     
   26361 H6        -388.3255  -266.7397   522.1720 H6            1 RES     
   26362 H6        -386.4581  -264.3421   523.0233 H6            1 RES     
   26363 H6        -387.6422  -265.1649   524.0578 H6            1 RES     
   26364 H6        -386.0271  -267.0446   524.6003 H6            1 RES     
   26365 H6        -385.6574  -265.4490   525.2041 H6            1 RES     
   26366 H6        -383.5074  -265.2988   524.3980 H6            1 RES     
   26367 H6        -382.5599  -266.3340   522.3485 H6            1 RES     
   26368 H6        -384.0237  -265.3661   522.3389 H6            1 RES     
   26369 H6        -385.5163  -267.4427   522.0983 H6            1 RES     
   26370 H6        -383.9881  -268.3274   521.8045 H6            1 RES     
   26371 H6        -383.6362  -266.6385   519.8027 H6            1 RES     
   26372 H6        -385.2141  -265.9627   520.1274 H6            1 RES     
   26373 H6        -385.2637  -267.5914   518.2085 H6            1 RES     
   26374 H6        -386.3859  -268.0575   519.5128 H6            1 RES     
   26375 H6        -384.8918  -269.7330   520.3585 H6            1 RES     
   26376 H6        -385.2014  -270.0911   518.6689 H6            1 RES     
   26377 H6        -382.6993  -268.3901   519.1561 H6            1 RES     
   26378 H6        -382.7054  -269.9668   519.9468 H6            1 RES     
   26379 H6        -382.9653  -271.1605   517.8570 H6            1 RES     
   26380 H6        -381.5601  -270.0356   517.8219 H6            1 RES     
   26381 H6        -382.9088  -268.3982   516.4662 H6            1 RES     
   26382 H6        -382.7265  -270.0101   515.6751 H6            1 RES     
   26383 H6        -384.2880  -269.5784   516.4576 H6            1 RES     
   26384 H6        -381.9680  -265.9049   525.8062 H6            1 RES     
   26385 H6        -381.5554  -267.1592   524.7480 H6            1 RES     
   26386 H6        -382.1506  -269.7687   526.1553 H6            1 RES     
   26387 H6        -382.5914  -269.7571   527.8983 H6            1 RES     
   26388 H6        -384.2730  -268.0920   525.8692 H6            1 RES     
   26389 H6        -386.0499  -268.2512   527.3711 H6            1 RES     
   26390 H6        -385.1890  -269.4485   528.3855 H6            1 RES     
   26391 H6        -385.3850  -267.2400   529.4201 H6            1 RES     
   26392 H6        -383.6782  -267.7871   529.2468 H6            1 RES     
   26393 H6        -383.2541  -266.1555   527.5418 H6            1 RES     
   26394 H6        -384.9772  -265.8173   527.2530 H6            1 RES     
   26395 H6        -383.7459  -263.9956   528.3821 H6            1 RES     
   26396 H6        -385.0669  -264.7015   529.3918 H6            1 RES     
   26397 H6        -383.3516  -266.1102   530.5770 H6            1 RES     
   26398 H6        -382.0261  -265.2913   529.6713 H6            1 RES     
   26399 H6        -382.7192  -263.1168   530.7385 H6            1 RES     
   26400 H6        -384.1848  -263.9365   531.4229 H6            1 RES     
   26401 H6        -381.2913  -264.5619   532.1167 H6            1 RES     
   26402 H6        -382.7271  -265.5369   532.6821 H6            1 RES     
   26403 H6        -382.1222  -262.6012   533.3004 H6            1 RES     
   26404 H6        -382.0053  -264.0225   534.4201 H6            1 RES     
   26405 H6        -383.6202  -263.5126   533.7920 H6            1 RES     
   26406 H6        -384.8199  -271.0068   526.3224 H6            1 RES     
   26407 H6        -383.9754  -270.2669   524.9293 H6            1 RES     
   26408 H6        -385.9176  -269.0923   524.1025 H6            1 RES     
   26409 H6        -386.0517  -270.8351   524.1611 H6            1 RES     
   26410 H6        -387.6849  -268.9208   525.9244 H6            1 RES     
   26411 H6        -388.1807  -269.9203   524.5318 H6            1 RES     
   26412 H6        -387.1853  -270.8972   527.2493 H6            1 RES     
   26413 H6        -387.4475  -272.0053   525.8369 H6            1 RES     
   26414 H6        -389.8423  -271.5706   525.7854 H6            1 RES     
   26415 H6        -389.6933  -270.2329   526.9723 H6            1 RES     
   26416 H6        -390.5644  -272.2161   528.1312 H6            1 RES     
   26417 H6        -388.9741  -271.6977   528.7478 H6            1 RES     
   26418 H6        -388.9826  -274.0993   528.7111 H6            1 RES     
   26419 H6        -387.8289  -273.5288   527.4976 H6            1 RES     
   26420 H6        -389.4840  -274.0003   525.6673 H6            1 RES     
   26421 H6        -389.0661  -275.4472   526.6392 H6            1 RES     
   26422 H6        -391.6734  -273.8035   526.8860 H6            1 RES     
   26423 H6        -391.4633  -275.4013   526.1008 H6            1 RES     
   26424 H6        -390.8056  -276.4218   528.2950 H6            1 RES     
   26425 H6        -391.0738  -274.8267   529.1112 H6            1 RES     
   26426 H6        -392.4480  -275.6770   528.3397 H6            1 RES     
   26427 C0        -371.4588  -271.0208   538.6669 C0            1 RES     
   26428 C0        -373.1056  -270.2819   539.0711 C0            1 RES     
   26429 C0        -374.0235  -271.3084   539.2544 C0            1 RES     
   26430 S1        -375.6747  -270.8393   539.3266 S1            1 RES     
   26431 C0        -375.6045  -269.1927   539.1289 C0            1 RES     
   26432 C0        -374.0641  -269.0028   539.0249 C0            1 RES     
   26433 C0        -373.5210  -272.5947   538.7703 C0            1 RES     
   26434 C0        -372.4110  -272.0004   537.9185 C0            1 RES     
   26435 C0        -372.8141  -271.8405   536.6286 C0            1 RES     
   26436 C0        -374.0537  -272.3931   536.3156 C0            1 RES     
   26437 S1        -374.8105  -273.2764   537.6526 S1            1 RES     
   26438 H2        -373.7172  -268.0039   538.7890 H2            1 RES     
   26439 H2        -372.3369  -271.1665   535.9362 H2            1 RES     
   26440 N3        -379.5703  -268.9000   538.7550 N3            1 RES     
   26441 C0        -378.2926  -269.3039   538.8234 C0            1 RES     
   26442 C0        -377.1204  -268.4396   539.0493 C0            1 RES     
   26443 C0        -377.5980  -267.0466   539.1749 C0            1 RES     
   26444 N3        -376.7982  -265.9531   539.3838 N3            1 RES     
   26445 S1        -377.8762  -264.6862   539.4730 S1            1 RES     
   26446 N3        -379.3477  -265.3996   539.2365 N3            1 RES     
   26447 C0        -379.0161  -266.6894   539.0903 C0            1 RES     
   26448 C0        -380.0066  -267.6159   538.8751 C0            1 RES     
   26449 H4        -378.1776  -270.3558   538.6838 H4            1 RES     
   26450 C5        -356.7883  -283.0276   542.7691 C5            1 RES     
   26451 C5        -357.9591  -282.0095   542.6636 C5            1 RES     
   26452 C5        -357.6875  -280.8350   541.6672 C5            1 RES     
   26453 C5        -358.9180  -279.8992   541.2328 C5            1 RES     
   26454 C5        -359.5302  -278.8226   542.2290 C5            1 RES     
   26455 C5        -360.9500  -278.0041   541.9268 C5            1 RES     
   26456 C5        -361.1969  -276.7439   540.8854 C5            1 RES     
   26457 C5        -362.5417  -275.6202   540.7909 C5            1 RES     
   26458 C5        -364.0487  -275.6366   539.9917 C5            1 RES     
   26459 C5        -365.5533  -274.6543   539.8692 C5            1 RES     
   26460 C5        -366.1960  -273.2689   538.9514 C5            1 RES     
   26461 C5        -364.7594  -272.5567   538.6313 C5            1 RES     
   26462 C5        -363.7470  -272.1799   539.8069 C5            1 RES     
   26463 C5        -362.2247  -272.0025   539.3832 C5            1 RES     
   26464 C5        -361.2564  -271.4550   540.5008 C5            1 RES     
   26465 C5        -361.7544  -270.1634   541.1854 C5            1 RES     
   26466 C5        -362.0911  -269.0145   540.2043 C5            1 RES     
   26467 C5        -361.1844  -267.7800   540.2714 C5            1 RES     
   26468 C5        -359.7145  -268.0505   539.9697 C5            1 RES     
   26469 C5        -367.9108  -272.3629   538.5774 C5            1 RES     
   26470 C0        -369.7135  -271.8663   539.1562 C0            1 RES     
   26471 C5        -369.4814  -271.6717   540.6766 C5            1 RES     
   26472 C5        -368.5300  -272.7427   541.3998 C5            1 RES     
   26473 C5        -369.2704  -274.0193   541.8340 C5            1 RES     
   26474 C5        -370.1378  -274.7371   540.7744 C5            1 RES     
   26475 C5        -369.4292  -275.0941   539.4495 C5            1 RES     
   26476 C5        -370.1823  -276.0851   538.5716 C5            1 RES     
   26477 C5        -371.6115  -275.6302   538.2742 C5            1 RES     
   26478 C5        -372.4035  -276.7531   537.6122 C5            1 RES     
   26479 C5        -373.8838  -276.3966   537.6231 C5            1 RES     
   26480 C5        -374.7637  -277.5402   537.1729 C5            1 RES     
   26481 C5        -367.7157  -272.0833   542.5647 C5            1 RES     
   26482 C5        -366.4078  -272.7370   543.1553 C5            1 RES     
   26483 C5        -366.4319  -273.9694   544.0999 C5            1 RES     
   26484 C5        -367.3579  -273.7614   545.3052 C5            1 RES     
   26485 C5        -367.1729  -274.8148   546.4207 C5            1 RES     
   26486 C5        -368.3482  -274.8012   547.4230 C5            1 RES     
   26487 C5        -368.6261  -273.4550   548.1241 C5            1 RES     
   26488 C5        -367.5344  -272.9798   549.1010 C5            1 RES     
   26489 C5        -367.2791  -273.9190   550.2965 C5            1 RES     
   26490 C5        -368.5152  -274.1379   551.1733 C5            1 RES     
   26491 H6        -356.5711  -283.5066   541.7871 H6            1 RES     
   26492 H6        -355.8512  -282.5645   543.1452 H6            1 RES     
   26493 H6        -357.0522  -283.8561   543.4694 H6            1 RES     
   26494 H6        -358.8345  -282.5935   542.3105 H6            1 RES     
   26495 H6        -358.1708  -281.6156   543.6783 H6            1 RES     
   26496 H6        -356.8123  -280.2479   542.0268 H6            1 RES     
   26497 H6        -357.3507  -281.3498   540.7358 H6            1 RES     
   26498 H6        -359.7191  -280.5934   540.9133 H6            1 RES     
   26499 H6        -358.5626  -279.3357   540.3468 H6            1 RES     
   26500 H6        -358.7105  -278.1194   542.5087 H6            1 RES     
   26501 H6        -359.7128  -279.4258   543.1504 H6            1 RES     
   26502 H6        -361.1521  -277.5662   542.9295 H6            1 RES     
   26503 H6        -361.7086  -278.7850   541.7465 H6            1 RES     
   26504 H6        -360.3364  -276.1020   541.1999 H6            1 RES     
   26505 H6        -360.9177  -277.0940   539.8704 H6            1 RES     
   26506 H6        -362.0013  -274.7590   540.3459 H6            1 RES     
   26507 H6        -362.6842  -275.3504   541.8593 H6            1 RES     
   26508 H6        -363.7750  -275.8999   538.9492 H6            1 RES     
   26509 H6        -364.4317  -276.5678   540.4566 H6            1 RES     
   26510 H6        -365.7872  -274.4746   540.9230 H6            1 RES     
   26511 H6        -366.2372  -275.4507   539.5475 H6            1 RES     
   26512 H6        -366.2351  -273.7812   537.9640 H6            1 RES     
   26513 H6        -364.8355  -271.7303   537.8964 H6            1 RES     
   26514 H6        -364.1618  -273.3388   538.0923 H6            1 RES     
   26515 H6        -363.7196  -272.9592   540.5940 H6            1 RES     
   26516 H6        -364.1239  -271.2483   540.2566 H6            1 RES     
   26517 H6        -362.1495  -271.3429   538.5027 H6            1 RES     
   26518 H6        -361.7873  -272.9670   539.0345 H6            1 RES     
   26519 H6        -360.2425  -271.2704   540.0700 H6            1 RES     
   26520 H6        -361.1169  -272.2199   541.2996 H6            1 RES     
   26521 H6        -362.6786  -270.4493   541.7250 H6            1 RES     
   26522 H6        -361.0631  -269.8170   541.9880 H6            1 RES     
   26523 H6        -362.1476  -269.3595   539.1586 H6            1 RES     
   26524 H6        -363.1107  -268.6566   540.4585 H6            1 RES     
   26525 H6        -361.2685  -267.3161   541.2764 H6            1 RES     
   26526 H6        -361.5674  -267.0535   539.5206 H6            1 RES     
   26527 H6        -359.5925  -268.5141   538.9691 H6            1 RES     
   26528 H6        -359.1682  -267.0819   539.9822 H6            1 RES     
   26529 H6        -359.2708  -268.7081   540.7451 H6            1 RES     
   26530 H6        -368.1721  -272.8609   537.6158 H6            1 RES     
   26531 H6        -367.5298  -271.3996   538.1772 H6            1 RES     
   26532 H6        -369.0068  -270.6724   540.7138 H6            1 RES     
   26533 H6        -370.4566  -271.6183   541.1993 H6            1 RES     
   26534 H6        -367.7379  -273.0778   540.7567 H6            1 RES     
   26535 H6        -368.5160  -274.7409   542.1943 H6            1 RES     
   26536 H6        -369.9369  -273.7669   542.6803 H6            1 RES     
   26537 H6        -370.4917  -275.6744   541.2521 H6            1 RES     
   26538 H6        -371.0202  -274.0988   540.5588 H6            1 RES     
   26539 H6        -369.3539  -274.2162   538.8388 H6            1 RES     
   26540 H6        -368.4245  -275.5022   539.6447 H6            1 RES     
   26541 H6        -369.6317  -276.2241   537.6123 H6            1 RES     
   26542 H6        -370.1993  -277.0504   539.1149 H6            1 RES     
   26543 H6        -372.1130  -275.4212   539.2379 H6            1 RES     
   26544 H6        -371.6261  -274.7014   537.6590 H6            1 RES     
   26545 H6        -372.0395  -276.9391   536.5776 H6            1 RES     
   26546 H6        -372.2726  -277.6732   538.2192 H6            1 RES     
   26547 H6        -374.0345  -275.5540   536.9350 H6            1 RES     
   26548 H6        -374.1917  -276.1262   538.6612 H6            1 RES     
   26549 H6        -374.5383  -277.7934   536.1183 H6            1 RES     
   26550 H6        -375.8255  -277.2249   537.2618 H6            1 RES     
   26551 H6        -374.5959  -278.4213   537.8268 H6            1 RES     
   26552 H6        -368.3973  -271.7759   543.3778 H6            1 RES     
   26553 H6        -367.3015  -271.1568   542.1061 H6            1 RES     
   26554 H6        -365.6728  -272.9241   542.3498 H6            1 RES     
   26555 H6        -365.9397  -271.9361   543.7681 H6            1 RES     
   26556 H6        -366.7002  -274.9066   543.5690 H6            1 RES     
   26557 H6        -365.3884  -274.1048   544.4750 H6            1 RES     
   26558 H6        -368.3955  -273.8008   544.9159 H6            1 RES     
   26559 H6        -367.1647  -272.7636   545.7531 H6            1 RES     
   26560 H6        -366.2011  -274.6563   546.9430 H6            1 RES     
   26561 H6        -367.1493  -275.8335   545.9758 H6            1 RES     
   26562 H6        -368.2054  -275.5998   548.1814 H6            1 RES     
   26563 H6        -369.2621  -275.0657   546.8487 H6            1 RES     
   26564 H6        -369.5841  -273.5409   548.6763 H6            1 RES     
   26565 H6        -368.7892  -272.6689   547.3584 H6            1 RES     
   26566 H6        -366.5826  -272.8333   548.5483 H6            1 RES     
   26567 H6        -367.8442  -271.9889   549.5013 H6            1 RES     
   26568 H6        -366.8996  -274.8997   549.9436 H6            1 RES     
   26569 H6        -366.4885  -273.4596   550.9289 H6            1 RES     
   26570 H6        -368.8994  -273.1676   551.5542 H6            1 RES     
   26571 H6        -369.3188  -274.6570   550.6117 H6            1 RES     
   26572 H6        -368.2456  -274.7770   552.0403 H6            1 RES     
   26573 C0        -384.5380  -267.1475   536.3807 C0            1 RES     
   26574 C0        -384.2153  -268.8878   536.9180 C0            1 RES     
   26575 C0        -384.2116  -268.9337   538.3064 C0            1 RES     
   26576 S1        -383.6213  -270.3851   539.0112 S1            1 RES     
   26577 C0        -383.2178  -271.3050   537.6898 C0            1 RES     
   26578 C0        -383.6409  -270.3340   536.5505 C0            1 RES     
   26579 C0        -384.1358  -267.6005   538.9052 C0            1 RES     
   26580 C0        -383.6555  -266.9059   537.6413 C0            1 RES     
   26581 C0        -382.2982  -266.8109   537.6188 C0            1 RES     
   26582 C0        -381.6514  -267.1946   538.7911 C0            1 RES     
   26583 S1        -382.7481  -267.6427   540.1091 S1            1 RES     
   26584 H2        -383.3972  -270.6417   535.5408 H2            1 RES     
   26585 H2        -381.7282  -266.6573   536.7172 H2            1 RES     
   26586 N3        -381.4196  -274.0640   539.9498 N3            1 RES     
   26587 C0        -381.9972  -272.9605   539.4508 C0            1 RES     
   26588 C0        -382.4930  -272.7879   538.0737 C0            1 RES     
   26589 C0        -382.2310  -274.0403   537.3340 C0            1 RES     
   26590 N3        -382.5446  -274.2608   536.0179 N3            1 RES     
   26591 S1        -382.0544  -275.8307   535.7525 S1            1 RES     
   26592 N3        -381.4198  -276.2993   537.2043 N3            1 RES     
   26593 C0        -381.5956  -275.2043   537.9561 C0            1 RES     
   26594 C0        -381.1834  -275.2174   539.2660 C0            1 RES     
   26595 H4        -382.0664  -272.1663   540.1605 H4            1 RES     
   26596 C5        -395.3314  -251.0342   536.6620 C5            1 RES     
   26597 C5        -394.6658  -252.4391   536.6212 C5            1 RES     
   26598 C5        -393.6674  -252.6312   535.4328 C5            1 RES     
   26599 C5        -392.6895  -253.9046   535.4523 C5            1 RES     
   26600 C5        -393.2302  -255.3674   535.1456 C5            1 RES     
   26601 C5        -392.3244  -256.7445   535.3913 C5            1 RES     
   26602 C5        -391.0874  -257.3286   534.4627 C5            1 RES     
   26603 C5        -390.3544  -258.9232   534.4538 C5            1 RES     
   26604 C5        -389.0838  -259.6507   535.3293 C5            1 RES     
   26605 C5        -388.2893  -261.2551   535.5264 C5            1 RES     
   26606 C5        -387.0069  -262.2340   534.7701 C5            1 RES     
   26607 C5        -387.1157  -261.5849   533.2733 C5            1 RES     
   26608 C5        -388.5039  -261.5607   532.4851 C5            1 RES     
   26609 C5        -388.6275  -260.4774   531.3278 C5            1 RES     
   26610 C5        -389.9210  -260.5700   530.4308 C5            1 RES     
   26611 C5        -390.1827  -261.9767   529.8496 C5            1 RES     
   26612 C5        -388.9860  -262.5740   529.0703 C5            1 RES     
   26613 C5        -389.1857  -262.7586   527.5615 C5            1 RES     
   26614 C5        -389.4702  -261.4727   526.7931 C5            1 RES     
   26615 C5        -385.9170  -263.8417   535.1285 C5            1 RES     
   26616 C0        -385.7362  -265.5993   535.9709 C0            1 RES     
   26617 C5        -387.1924  -266.1195   535.8609 C5            1 RES     
   26618 C5        -388.3579  -265.0569   536.1575 C5            1 RES     
   26619 C5        -388.6862  -264.9153   537.6538 C5            1 RES     
   26620 C5        -387.5075  -264.6673   538.6231 C5            1 RES     
   26621 C5        -386.5903  -263.4730   538.2807 C5            1 RES     
   26622 C5        -385.6607  -263.0408   539.4072 C5            1 RES     
   26623 C5        -384.8103  -264.1963   539.9360 C5            1 RES     
   26624 C5        -384.0859  -263.7862   541.2140 C5            1 RES     
   26625 C5        -383.5165  -265.0272   541.8879 C5            1 RES     
   26626 C5        -382.9594  -264.7417   543.2637 C5            1 RES     
   26627 C5        -389.6235  -265.3428   535.2794 C5            1 RES     
   26628 C5        -390.7310  -264.2518   535.0150 C5            1 RES     
   26629 C5        -391.7783  -263.8350   536.0833 C5            1 RES     
   26630 C5        -392.5302  -265.0400   536.6630 C5            1 RES     
   26631 C5        -393.7827  -264.6559   537.4828 C5            1 RES     
   26632 C5        -394.2878  -265.8343   538.3444 C5            1 RES     
   26633 C5        -394.6347  -267.1311   537.5834 C5            1 RES     
   26634 C5        -395.8530  -267.0422   536.6455 C5            1 RES     
   26635 C5        -397.1871  -266.7115   537.3434 C5            1 RES     
   26636 C5        -397.5896  -267.7387   538.4054 C5            1 RES     
   26637 H6        -394.5740  -250.2241   536.7678 H6            1 RES     
   26638 H6        -395.9423  -250.8237   535.7584 H6            1 RES     
   26639 H6        -396.0075  -250.9472   537.5462 H6            1 RES     
   26640 H6        -394.1161  -252.5394   537.5803 H6            1 RES     
   26641 H6        -395.4679  -253.2036   536.5807 H6            1 RES     
   26642 H6        -394.2225  -252.5353   534.4722 H6            1 RES     
   26643 H6        -393.0047  -251.7352   535.4957 H6            1 RES     
   26644 H6        -392.2136  -253.8968   536.4520 H6            1 RES     
   26645 H6        -391.9141  -253.6938   534.6887 H6            1 RES     
   26646 H6        -393.6745  -255.3536   534.1224 H6            1 RES     
   26647 H6        -394.1056  -255.4480   535.8337 H6            1 RES     
   26648 H6        -393.1123  -257.5259   535.3097 H6            1 RES     
   26649 H6        -392.0051  -256.7038   536.4469 H6            1 RES     
   26650 H6        -391.5875  -257.2611   533.4644 H6            1 RES     
   26651 H6        -390.3024  -256.5456   534.4268 H6            1 RES     
   26652 H6        -390.0072  -258.9352   533.3998 H6            1 RES     
   26653 H6        -391.2492  -259.5817   534.4702 H6            1 RES     
   26654 H6        -388.2585  -258.9162   535.2275 H6            1 RES     
   26655 H6        -389.5158  -259.4943   536.3387 H6            1 RES     
   26656 H6        -389.1516  -261.9137   535.6678 H6            1 RES     
   26657 H6        -387.8684  -261.1018   536.5289 H6            1 RES     
   26658 H6        -386.1585  -261.5761   535.0639 H6            1 RES     
   26659 H6        -386.2871  -261.8903   532.6033 H6            1 RES     
   26660 H6        -386.9477  -260.4853   533.4212 H6            1 RES     
   26661 H6        -389.3564  -261.3375   533.1567 H6            1 RES     
   26662 H6        -388.6457  -262.5713   532.0718 H6            1 RES     
   26663 H6        -387.7432  -260.5208   530.6704 H6            1 RES     
   26664 H6        -388.6053  -259.4415   531.7398 H6            1 RES     
   26665 H6        -389.8563  -259.8362   529.5912 H6            1 RES     
   26666 H6        -390.8219  -260.2835   531.0213 H6            1 RES     
   26667 H6        -390.3948  -262.6250   530.7223 H6            1 RES     
   26668 H6        -391.1171  -262.0164   529.2435 H6            1 RES     
   26669 H6        -388.0526  -262.0123   529.2408 H6            1 RES     
   26670 H6        -388.8047  -263.5900   529.4793 H6            1 RES     
   26671 H6        -390.0138  -263.4767   527.3852 H6            1 RES     
   26672 H6        -388.2482  -263.2049   527.1611 H6            1 RES     
   26673 H6        -388.6595  -260.7306   526.9455 H6            1 RES     
   26674 H6        -389.5310  -261.7158   525.7096 H6            1 RES     
   26675 H6        -390.4415  -261.0375   527.1053 H6            1 RES     
   26676 H6        -385.0113  -263.3542   535.5562 H6            1 RES     
   26677 H6        -385.5392  -264.0436   534.1039 H6            1 RES     
   26678 H6        -387.2461  -266.4400   534.8028 H6            1 RES     
   26679 H6        -387.3201  -267.0109   536.5060 H6            1 RES     
   26680 H6        -388.0961  -264.0687   535.8287 H6            1 RES     
   26681 H6        -389.3946  -264.0755   537.7657 H6            1 RES     
   26682 H6        -389.1925  -265.8397   537.9903 H6            1 RES     
   26683 H6        -387.9626  -264.4917   539.6200 H6            1 RES     
   26684 H6        -386.8996  -265.5949   538.6738 H6            1 RES     
   26685 H6        -385.9223  -263.7528   537.4902 H6            1 RES     
   26686 H6        -387.1884  -262.5999   537.9744 H6            1 RES     
   26687 H6        -384.9919  -262.2258   539.0445 H6            1 RES     
   26688 H6        -386.3002  -262.6412   540.2187 H6            1 RES     
   26689 H6        -385.4901  -265.0235   540.2147 H6            1 RES     
   26690 H6        -384.0987  -264.5681   539.1635 H6            1 RES     
   26691 H6        -383.2884  -263.0417   540.9968 H6            1 RES     
   26692 H6        -384.8300  -263.3373   541.9047 H6            1 RES     
   26693 H6        -382.7022  -265.4111   541.2589 H6            1 RES     
   26694 H6        -384.3246  -265.7881   542.0056 H6            1 RES     
   26695 H6        -382.1042  -264.0420   543.1836 H6            1 RES     
   26696 H6        -382.6169  -265.6991   543.7117 H6            1 RES     
   26697 H6        -383.7540  -264.3093   543.9069 H6            1 RES     
   26698 H6        -390.0857  -266.3002   535.5796 H6            1 RES     
   26699 H6        -389.2092  -265.4774   534.2544 H6            1 RES     
   26700 H6        -390.2770  -263.3367   534.5901 H6            1 RES     
   26701 H6        -391.3431  -264.6618   534.1824 H6            1 RES     
   26702 H6        -391.3332  -263.2322   536.9022 H6            1 RES     
   26703 H6        -392.5155  -263.1733   535.5669 H6            1 RES     
   26704 H6        -391.8081  -265.5820   537.3069 H6            1 RES     
   26705 H6        -392.8630  -265.7021   535.8357 H6            1 RES     
   26706 H6        -394.5863  -264.2828   536.8066 H6            1 RES     
   26707 H6        -393.5328  -263.8336   538.1882 H6            1 RES     
   26708 H6        -395.1576  -265.5095   538.9536 H6            1 RES     
   26709 H6        -393.4726  -266.0819   539.0580 H6            1 RES     
   26710 H6        -394.8166  -267.9335   538.3271 H6            1 RES     
   26711 H6        -393.7527  -267.4592   536.9958 H6            1 RES     
   26712 H6        -395.6593  -266.2821   535.8596 H6            1 RES     
   26713 H6        -395.9642  -268.0264   536.1383 H6            1 RES     
   26714 H6        -397.1429  -265.7034   537.8043 H6            1 RES     
   26715 H6        -397.9829  -266.6925   536.5673 H6            1 RES     
   26716 H6        -397.6595  -268.7535   537.9588 H6            1 RES     
   26717 H6        -396.8634  -267.7547   539.2437 H6            1 RES     
   26718 H6        -398.5809  -267.4676   538.8257 H6            1 RES     
   26719 C0        -377.2014  -277.6987   541.4935 C0            1 RES     
   26720 C0        -378.0720  -276.5752   542.6772 C0            1 RES     
   26721 C0        -379.3612  -277.0512   542.8796 C0            1 RES     
   26722 S1        -380.4382  -275.9885   543.6935 S1            1 RES     
   26723 C0        -379.4999  -274.6484   543.9743 C0            1 RES     
   26724 C0        -378.1532  -275.1345   543.3660 C0            1 RES     
   26725 C0        -379.7414  -278.0606   541.8905 C0            1 RES     
   26726 C0        -378.6421  -277.7090   540.9013 C0            1 RES     
   26727 C0        -379.0895  -276.8330   539.9609 C0            1 RES     
   26728 C0        -380.4584  -276.5772   539.9839 C0            1 RES     
   26729 S1        -381.3517  -277.5255   541.1852 S1            1 RES     
   26730 H2        -377.3541  -274.4043   543.3212 H2            1 RES     
   26731 H2        -378.4372  -276.2108   539.3704 H2            1 RES     
   26732 N3        -382.6366  -272.5025   545.2029 N3            1 RES     
   26733 C0        -381.8059  -273.4120   544.6708 C0            1 RES     
   26734 C0        -380.3333  -273.3565   544.6871 C0            1 RES     
   26735 C0        -379.9311  -272.1158   545.3821 C0            1 RES     
   26736 N3        -378.6382  -271.7096   545.5887 N3            1 RES     
   26737 S1        -378.8021  -270.2857   546.4378 S1            1 RES     
   26738 N3        -380.4373  -270.0867   546.5673 N3            1 RES     
   26739 C0        -380.9048  -271.1735   545.9385 C0            1 RES     
   26740 C0        -382.2620  -271.3624   545.8460 C0            1 RES     
   26741 H4        -382.3175  -274.2206   544.1977 H4            1 RES     
   26742 C5        -371.2169  -295.3588   536.1531 C5            1 RES     
   26743 C5        -371.6258  -294.0014   536.7924 C5            1 RES     
   26744 C5        -370.9127  -292.7632   536.1565 C5            1 RES     
   26745 C5        -371.4686  -291.2973   536.5040 C5            1 RES     
   26746 C5        -371.2121  -290.6306   537.9238 C5            1 RES     
   26747 C5        -371.9665  -289.2314   538.4239 C5            1 RES     
   26748 C5        -371.6366  -287.6773   537.9659 C5            1 RES     
   26749 C5        -372.1273  -286.1657   538.7103 C5            1 RES     
   26750 C5        -373.4953  -285.1576   538.5608 C5            1 RES     
   26751 C5        -374.1994  -283.6731   539.2986 C5            1 RES     
   26752 C5        -374.1036  -281.9016   539.1331 C5            1 RES     
   26753 C5        -372.5868  -281.8387   538.5256 C5            1 RES     
   26754 C5        -371.3626  -282.5147   539.2958 C5            1 RES     
   26755 C5        -370.0889  -282.8605   538.4090 C5            1 RES     
   26756 C5        -368.8154  -283.3582   539.1943 C5            1 RES     
   26757 C5        -368.3964  -282.4359   540.3600 C5            1 RES     
   26758 C5        -368.1919  -280.9556   539.9560 C5            1 RES     
   26759 C5        -366.7564  -280.4239   540.0391 C5            1 RES     
   26760 C5        -365.7541  -281.1498   539.1484 C5            1 RES     
   26761 C5        -375.0619  -280.2720   539.7050 C5            1 RES     
   26762 C0        -376.1661  -279.3460   541.0296 C0            1 RES     
   26763 C5        -375.6249  -279.9725   542.3402 C5            1 RES     
   26764 C5        -375.3255  -281.5489   542.3114 C5            1 RES     
   26765 C5        -376.5682  -282.4098   542.5961 C5            1 RES     
   26766 C5        -377.8444  -282.1152   541.7746 C5            1 RES     
   26767 C5        -377.6760  -282.1176   540.2395 C5            1 RES     
   26768 C5        -378.9812  -282.1670   539.4559 C5            1 RES     
   26769 C5        -379.9440  -281.0491   539.8574 C5            1 RES     
   26770 C5        -381.3194  -281.2803   539.2400 C5            1 RES     
   26771 C5        -382.3291  -280.3535   539.9034 C5            1 RES     
   26772 C5        -383.7538  -280.6560   539.4994 C5            1 RES     
   26773 C5        -374.1081  -281.9123   543.2283 C5            1 RES     
   26774 C5        -373.3076  -283.2619   543.0722 C5            1 RES     
   26775 C5        -373.8588  -284.6317   543.5535 C5            1 RES     
   26776 C5        -374.3065  -284.5963   545.0205 C5            1 RES     
   26777 C5        -374.5605  -285.9948   545.6272 C5            1 RES     
   26778 C5        -375.3520  -285.9105   546.9509 C5            1 RES     
   26779 C5        -374.7204  -285.0502   548.0653 C5            1 RES     
   26780 C5        -373.4087  -285.5962   548.6597 C5            1 RES     
   26781 C5        -373.5291  -286.9722   549.3441 C5            1 RES     
   26782 C5        -374.5194  -286.9867   550.5120 C5            1 RES     
   26783 H6        -371.4626  -295.3916   535.0670 H6            1 RES     
   26784 H6        -370.1346  -295.5790   536.2719 H6            1 RES     
   26785 H6        -371.7794  -296.1993   536.6262 H6            1 RES     
   26786 H6        -372.7211  -293.9130   536.6356 H6            1 RES     
   26787 H6        -371.4176  -294.0519   537.8803 H6            1 RES     
   26788 H6        -369.8149  -292.8520   536.3200 H6            1 RES     
   26789 H6        -371.0724  -292.8992   535.0602 H6            1 RES     
   26790 H6        -372.5590  -291.3425   536.3170 H6            1 RES     
   26791 H6        -371.0082  -290.6213   535.7558 H6            1 RES     
   26792 H6        -370.1081  -290.5690   538.0714 H6            1 RES     
   26793 H6        -371.5479  -291.4296   538.6275 H6            1 RES     
   26794 H6        -371.7280  -289.2465   539.5106 H6            1 RES     
   26795 H6        -373.0479  -289.4248   538.3185 H6            1 RES     
   26796 H6        -370.5277  -287.6968   538.1111 H6            1 RES     
   26797 H6        -371.7655  -287.6223   536.8654 H6            1 RES     
   26798 H6        -371.2800  -285.5354   538.3691 H6            1 RES     
   26799 H6        -371.9228  -286.3673   539.7837 H6            1 RES     
   26800 H6        -373.5850  -285.0204   537.4635 H6            1 RES     
   26801 H6        -374.2498  -285.9208   538.8407 H6            1 RES     
   26802 H6        -374.1218  -283.8981   540.3667 H6            1 RES     
   26803 H6        -375.2510  -283.8487   539.0364 H6            1 RES     
   26804 H6        -374.5779  -281.8447   538.1277 H6            1 RES     
   26805 H6        -372.3087  -280.8345   538.1477 H6            1 RES     
   26806 H6        -372.6187  -282.4726   537.6002 H6            1 RES     
   26807 H6        -371.6460  -283.4840   539.7517 H6            1 RES     
   26808 H6        -371.0819  -281.8221   540.1043 H6            1 RES     
   26809 H6        -369.8031  -281.9883   537.7977 H6            1 RES     
   26810 H6        -370.3222  -283.6504   537.6574 H6            1 RES     
   26811 H6        -367.9541  -283.4706   538.4921 H6            1 RES     
   26812 H6        -368.9973  -284.3709   539.6231 H6            1 RES     
   26813 H6        -369.2231  -282.4903   541.0952 H6            1 RES     
   26814 H6        -367.5110  -282.8279   540.9118 H6            1 RES     
   26815 H6        -368.5970  -280.7348   538.9546 H6            1 RES     
   26816 H6        -368.7855  -280.3394   540.6633 H6            1 RES     
   26817 H6        -366.4067  -280.4719   541.0917 H6            1 RES     
   26818 H6        -366.7868  -279.3548   539.7319 H6            1 RES     
   26819 H6        -366.0719  -281.1203   538.0857 H6            1 RES     
   26820 H6        -364.7690  -280.6417   539.2395 H6            1 RES     
   26821 H6        -365.6319  -282.2028   539.4748 H6            1 RES     
   26822 H6        -375.7055  -280.1173   538.8090 H6            1 RES     
   26823 H6        -374.2809  -279.5116   539.4923 H6            1 RES     
   26824 H6        -374.6774  -279.4199   542.4888 H6            1 RES     
   26825 H6        -376.3079  -279.7325   543.1787 H6            1 RES     
   26826 H6        -374.9675  -281.8740   541.3525 H6            1 RES     
   26827 H6        -376.2942  -283.4655   542.4227 H6            1 RES     
   26828 H6        -376.8369  -282.2949   543.6632 H6            1 RES     
   26829 H6        -378.5764  -282.9016   542.0532 H6            1 RES     
   26830 H6        -378.2459  -281.1321   542.0987 H6            1 RES     
   26831 H6        -377.2258  -281.1951   539.9297 H6            1 RES     
   26832 H6        -377.0504  -282.9660   539.9192 H6            1 RES     
   26833 H6        -378.7624  -282.0922   538.3653 H6            1 RES     
   26834 H6        -379.4430  -283.1533   539.6590 H6            1 RES     
   26835 H6        -380.0832  -281.0931   540.9540 H6            1 RES     
   26836 H6        -379.5397  -280.0454   539.5920 H6            1 RES     
   26837 H6        -381.2912  -281.1261   538.1386 H6            1 RES     
   26838 H6        -381.6252  -282.3250   539.4575 H6            1 RES     
   26839 H6        -382.0955  -279.3244   539.5992 H6            1 RES     
   26840 H6        -382.2642  -280.4682   541.0117 H6            1 RES     
   26841 H6        -383.8792  -280.4842   538.4122 H6            1 RES     
   26842 H6        -384.4320  -279.9809   540.0641 H6            1 RES     
   26843 H6        -384.0002  -281.7075   539.7558 H6            1 RES     
   26844 H6        -374.3640  -281.7332   544.2879 H6            1 RES     
   26845 H6        -373.3298  -281.1694   542.9411 H6            1 RES     
   26846 H6        -372.9401  -283.3744   542.0347 H6            1 RES     
   26847 H6        -372.3830  -283.1169   543.6724 H6            1 RES     
   26848 H6        -374.6825  -285.0076   542.9115 H6            1 RES     
   26849 H6        -373.0215  -285.3648   543.4571 H6            1 RES     
   26850 H6        -375.2383  -283.9957   545.0512 H6            1 RES     
   26851 H6        -373.5239  -284.1030   545.6350 H6            1 RES     
   26852 H6        -373.5952  -286.5325   545.7729 H6            1 RES     
   26853 H6        -375.1772  -286.6013   544.9286 H6            1 RES     
   26854 H6        -375.5565  -286.9330   547.3330 H6            1 RES     
   26855 H6        -376.3371  -285.4578   546.7069 H6            1 RES     
   26856 H6        -375.4618  -284.9395   548.8826 H6            1 RES     
   26857 H6        -374.5407  -284.0252   547.6807 H6            1 RES     
   26858 H6        -372.6388  -285.6567   547.8620 H6            1 RES     
   26859 H6        -373.0483  -284.8650   549.4171 H6            1 RES     
   26860 H6        -373.8194  -287.7474   548.6056 H6            1 RES     
   26861 H6        -372.5274  -287.2444   549.7421 H6            1 RES     
   26862 H6        -374.2342  -286.2300   551.2738 H6            1 RES     
   26863 H6        -375.5534  -286.7867   550.1638 H6            1 RES     
   26864 H6        -374.5144  -287.9892   550.9893 H6            1 RES     
   26865 C0        -386.1033  -267.8874   545.4671 C0            1 RES     
   26866 C0        -386.7181  -269.6250   545.3124 C0            1 RES     
   26867 C0        -386.5179  -270.2795   546.5213 C0            1 RES     
   26868 S1        -386.7272  -271.9846   546.4992 S1            1 RES     
   26869 C0        -387.1195  -272.2925   544.9159 C0            1 RES     
   26870 C0        -387.1095  -270.8426   544.3527 C0            1 RES     
   26871 C0        -385.6209  -269.5401   547.4104 C0            1 RES     
   26872 C0        -385.0464  -268.6491   546.3211 C0            1 RES     
   26873 C0        -383.8887  -269.1646   545.8250 C0            1 RES     
   26874 C0        -383.3852  -270.2703   546.5059 C0            1 RES     
   26875 S1        -384.3179  -270.7210   547.9437 S1            1 RES     
   26876 H2        -387.2430  -270.7412   543.2823 H2            1 RES     
   26877 H2        -383.4827  -268.8959   544.8635 H2            1 RES     
   26878 N3        -386.8177  -276.2414   545.4339 N3            1 RES     
   26879 C0        -386.7578  -274.9045   545.5310 C0            1 RES     
   26880 C0        -387.2879  -273.9390   544.5519 C0            1 RES     
   26881 C0        -387.8868  -274.7020   543.4368 C0            1 RES     
   26882 N3        -388.4761  -274.1504   542.3289 N3            1 RES     
   26883 S1        -388.9885  -275.4724   541.4543 S1            1 RES     
   26884 N3        -388.4972  -276.7631   542.3612 N3            1 RES     
   26885 C0        -387.9133  -276.1663   543.4090 C0            1 RES     
   26886 C0        -387.3738  -276.9407   544.4066 C0            1 RES     
   26887 H4        -386.2603  -274.5704   546.4143 H4            1 RES     
   26888 C5        -385.9418  -250.6874   554.4309 C5            1 RES     
   26889 C5        -386.1836  -252.0582   553.7373 C5            1 RES     
   26890 C5        -385.6652  -252.1206   552.2631 C5            1 RES     
   26891 C5        -385.5692  -253.5537   551.5451 C5            1 RES     
   26892 C5        -386.8708  -254.3186   551.0482 C5            1 RES     
   26893 C5        -386.8550  -255.9011   550.5260 C5            1 RES     
   26894 C5        -386.3174  -256.4899   549.0776 C5            1 RES     
   26895 C5        -386.6039  -258.0525   548.3317 C5            1 RES     
   26896 C5        -385.8291  -259.5697   548.4189 C5            1 RES     
   26897 C5        -386.0378  -261.2586   547.8288 C5            1 RES     
   26898 C5        -385.6544  -262.2518   546.4001 C5            1 RES     
   26899 C5        -385.6235  -261.0326   545.3109 C5            1 RES     
   26900 C5        -386.8703  -260.0503   545.1388 C5            1 RES     
   26901 C5        -386.5564  -258.6370   544.4813 C5            1 RES     
   26902 C5        -387.8080  -257.7393   544.1440 C5            1 RES     
   26903 C5        -388.8946  -258.4617   543.3180 C5            1 RES     
   26904 C5        -388.3733  -259.1094   542.0122 C5            1 RES     
   26905 C5        -388.8807  -258.4945   540.7027 C5            1 RES     
   26906 C5        -388.5235  -257.0251   540.5069 C5            1 RES     
   26907 C5        -385.5979  -264.1454   545.8415 C5            1 RES     
   26908 C0        -386.2894  -265.9695   546.0033 C0            1 RES     
   26909 C5        -387.7846  -265.6829   546.2951 C5            1 RES     
   26910 C5        -388.1000  -264.4718   547.2998 C5            1 RES     
   26911 C5        -388.0497  -264.8814   548.7817 C5            1 RES     
   26912 C5        -386.7941  -265.6396   549.2708 C5            1 RES     
   26913 C5        -385.4379  -264.9617   548.9774 C5            1 RES     
   26914 C5        -384.2584  -265.5361   549.7512 C5            1 RES     
   26915 C5        -384.1197  -267.0473   549.5639 C5            1 RES     
   26916 C5        -383.0957  -267.6156   550.5411 C5            1 RES     
   26917 C5        -383.2105  -269.1338   550.5610 C5            1 RES     
   26918 C5        -382.3765  -269.7688   551.6500 C5            1 RES     
   26919 C5        -389.4330  -263.7454   546.9123 C5            1 RES     
   26920 C5        -389.7752  -262.2884   547.4093 C5            1 RES     
   26921 C5        -390.2281  -261.9759   548.8615 C5            1 RES     
   26922 C5        -391.4172  -262.8405   549.2996 C5            1 RES     
   26923 C5        -392.0958  -262.3524   550.5994 C5            1 RES     
   26924 C5        -393.0233  -263.4307   551.2020 C5            1 RES     
   26925 C5        -394.1475  -263.9499   550.2813 C5            1 RES     
   26926 C5        -395.2436  -262.9257   549.9331 C5            1 RES     
   26927 C5        -396.0380  -262.3889   551.1402 C5            1 RES     
   26928 C5        -396.7658  -263.4837   551.9255 C5            1 RES     
   26929 H6        -384.8573  -250.4376   554.4796 H6            1 RES     
   26930 H6        -386.4690  -249.8519   553.9229 H6            1 RES     
   26931 H6        -386.3041  -250.7140   555.4867 H6            1 RES     
   26932 H6        -385.6364  -252.8054   554.3492 H6            1 RES     
   26933 H6        -387.2689  -252.2817   553.7762 H6            1 RES     
   26934 H6        -386.2195  -251.3738   551.6507 H6            1 RES     
   26935 H6        -384.6172  -251.7429   552.3342 H6            1 RES     
   26936 H6        -385.0159  -254.2021   552.2518 H6            1 RES     
   26937 H6        -384.9415  -253.3925   550.6458 H6            1 RES     
   26938 H6        -387.3901  -253.6569   550.3154 H6            1 RES     
   26939 H6        -387.5201  -254.3006   551.9561 H6            1 RES     
   26940 H6        -387.9446  -256.1258   550.5184 H6            1 RES     
   26941 H6        -386.4023  -256.4795   551.3497 H6            1 RES     
   26942 H6        -386.8484  -255.7727   548.4032 H6            1 RES     
   26943 H6        -385.2479  -256.2104   548.9833 H6            1 RES     
   26944 H6        -386.4961  -257.7467   547.2703 H6            1 RES     
   26945 H6        -387.6972  -258.1778   548.4860 H6            1 RES     
   26946 H6        -384.7642  -259.3166   548.2374 H6            1 RES     
   26947 H6        -385.9333  -259.7056   549.5146 H6            1 RES     
   26948 H6        -387.0845  -261.4539   548.0813 H6            1 RES     
   26949 H6        -385.4484  -261.7706   548.6008 H6            1 RES     
   26950 H6        -384.5497  -262.2443   546.5362 H6            1 RES     
   26951 H6        -385.2236  -261.3388   544.3235 H6            1 RES     
   26952 H6        -384.8531  -260.3156   545.7002 H6            1 RES     
   26953 H6        -387.3351  -259.7984   546.1125 H6            1 RES     
   26954 H6        -387.6126  -260.5916   544.5319 H6            1 RES     
   26955 H6        -385.9636  -258.7692   543.5608 H6            1 RES     
   26956 H6        -385.8980  -258.0227   545.1388 H6            1 RES     
   26957 H6        -387.4830  -256.8228   543.5944 H6            1 RES     
   26958 H6        -388.2903  -257.3805   545.0828 H6            1 RES     
   26959 H6        -389.2873  -259.2612   543.9764 H6            1 RES     
   26960 H6        -389.7771  -257.8106   543.1192 H6            1 RES     
   26961 H6        -387.2723  -259.1597   541.9800 H6            1 RES     
   26962 H6        -388.7228  -260.1630   542.0085 H6            1 RES     
   26963 H6        -389.9833  -258.6100   540.6451 H6            1 RES     
   26964 H6        -388.4267  -259.0784   539.8714 H6            1 RES     
   26965 H6        -387.4257  -256.8725   540.5570 H6            1 RES     
   26966 H6        -388.8817  -256.7061   539.5035 H6            1 RES     
   26967 H6        -389.0255  -256.3957   541.2699 H6            1 RES     
   26968 H6        -384.5194  -264.3555   546.0246 H6            1 RES     
   26969 H6        -385.5656  -264.0142   544.7392 H6            1 RES     
   26970 H6        -388.1759  -265.4387   545.2889 H6            1 RES     
   26971 H6        -388.2796  -266.6079   546.6507 H6            1 RES     
   26972 H6        -387.3911  -263.6711   547.2015 H6            1 RES     
   26973 H6        -388.1448  -263.9638   549.3888 H6            1 RES     
   26974 H6        -388.9216  -265.5278   548.9962 H6            1 RES     
   26975 H6        -386.9086  -265.7449   550.3697 H6            1 RES     
   26976 H6        -386.8036  -266.6535   548.8187 H6            1 RES     
   26977 H6        -385.1742  -265.1235   547.9508 H6            1 RES     
   26978 H6        -385.4916  -263.8809   549.1846 H6            1 RES     
   26979 H6        -383.3187  -265.0351   549.4213 H6            1 RES     
   26980 H6        -384.4291  -265.3029   550.8207 H6            1 RES     
   26981 H6        -385.0886  -267.5156   549.8203 H6            1 RES     
   26982 H6        -383.8685  -267.3080   548.5102 H6            1 RES     
   26983 H6        -382.0665  -267.2910   550.2710 H6            1 RES     
   26984 H6        -383.3438  -267.2441   551.5572 H6            1 RES     
   26985 H6        -382.8590  -269.5130   549.5921 H6            1 RES     
   26986 H6        -384.2733  -269.4222   550.7425 H6            1 RES     
   26987 H6        -381.3031  -269.5656   551.4663 H6            1 RES     
   26988 H6        -382.5557  -270.8654   551.6380 H6            1 RES     
   26989 H6        -382.6828  -269.3668   552.6383 H6            1 RES     
   26990 H6        -390.2930  -264.4208   547.0688 H6            1 RES     
   26991 H6        -389.3336  -263.5777   545.8158 H6            1 RES     
   26992 H6        -388.9653  -261.5869   547.1336 H6            1 RES     
   26993 H6        -390.6359  -261.9675   546.7830 H6            1 RES     
   26994 H6        -389.3992  -262.0667   549.5941 H6            1 RES     
   26995 H6        -390.5463  -260.9051   548.8735 H6            1 RES     
   26996 H6        -391.0247  -263.8681   549.4406 H6            1 RES     
   26997 H6        -392.1887  -262.8419   548.5006 H6            1 RES     
   26998 H6        -392.6537  -261.4062   550.4109 H6            1 RES     
   26999 H6        -391.3227  -262.1354   551.3685 H6            1 RES     
   27000 H6        -393.4560  -263.0642   552.1568 H6            1 RES     
   27001 H6        -392.3803  -264.3009   551.4558 H6            1 RES     
   27002 H6        -394.6215  -264.8255   550.7698 H6            1 RES     
   27003 H6        -393.7032  -264.3339   549.3400 H6            1 RES     
   27004 H6        -394.7902  -262.0696   549.3906 H6            1 RES     
   27005 H6        -395.9613  -263.4182   549.2398 H6            1 RES     
   27006 H6        -395.3693  -261.8276   551.8245 H6            1 RES     
   27007 H6        -396.8019  -261.6777   550.7573 H6            1 RES     
   27008 H6        -397.4570  -264.0452   551.2614 H6            1 RES     
   27009 H6        -396.0471  -264.1895   552.3900 H6            1 RES     
   27010 H6        -397.3578  -263.0214   552.7432 H6            1 RES     
   27011 C0        -385.1397  -281.6232   544.1661 C0            1 RES     
   27012 C0        -385.0381  -280.8892   545.8608 C0            1 RES     
   27013 C0        -386.3225  -280.7808   546.3789 C0            1 RES     
   27014 S1        -386.4825  -279.8386   547.8066 S1            1 RES     
   27015 C0        -384.9283  -279.3334   548.0972 C0            1 RES     
   27016 C0        -384.1954  -280.0367   546.9190 C0            1 RES     
   27017 C0        -387.3511  -280.9599   545.3535 C0            1 RES     
   27018 C0        -386.4170  -280.7318   544.1762 C0            1 RES     
   27019 C0        -386.4477  -279.4335   543.7694 C0            1 RES     
   27020 C0        -387.4202  -278.6397   544.3728 C0            1 RES     
   27021 S1        -388.4828  -279.5182   545.4862 S1            1 RES     
   27022 H2        -383.1452  -279.8006   546.7961 H2            1 RES     
   27023 H2        -385.6648  -278.9741   543.1886 H2            1 RES     
   27024 N3        -386.1037  -276.8217   550.9718 N3            1 RES     
   27025 C0        -386.0147  -277.6609   549.9286 C0            1 RES     
   27026 C0        -384.7786  -278.2752   549.4123 C0            1 RES     
   27027 C0        -383.6509  -277.7949   550.2381 C0            1 RES     
   27028 N3        -382.3368  -278.1411   550.0587 N3            1 RES     
   27029 S1        -381.5452  -277.3364   551.2839 S1            1 RES     
   27030 N3        -382.7496  -276.5167   552.0634 N3            1 RES     
   27031 C0        -383.8347  -276.8777   551.3653 C0            1 RES     
   27032 C0        -385.0626  -276.3845   551.7325 C0            1 RES     
   27033 H4        -386.9566  -277.8548   549.4654 H4            1 RES     
   27034 C5        -390.8973  -295.6563   532.0774 C5            1 RES     
   27035 C5        -390.3763  -294.7020   533.1893 C5            1 RES     
   27036 C5        -389.2096  -293.7692   532.7258 C5            1 RES     
   27037 C5        -388.7954  -292.5358   533.6668 C5            1 RES     
   27038 C5        -387.9886  -292.7605   535.0177 C5            1 RES     
   27039 C5        -387.7489  -291.5591   536.1473 C5            1 RES     
   27040 C5        -386.6916  -290.2900   536.0752 C5            1 RES     
   27041 C5        -386.1350  -289.2261   537.3552 C5            1 RES     
   27042 C5        -386.7176  -287.7698   538.0259 C5            1 RES     
   27043 C5        -386.3514  -286.6297   539.3714 C5            1 RES     
   27044 C5        -385.3178  -285.2179   539.7075 C5            1 RES     
   27045 C5        -384.1416  -285.5688   538.6272 C5            1 RES     
   27046 C5        -383.3929  -286.9786   538.6539 C5            1 RES     
   27047 C5        -382.6865  -287.4165   537.2983 C5            1 RES     
   27048 C5        -381.7963  -288.7159   537.3721 C5            1 RES     
   27049 C5        -380.7559  -288.7002   538.5134 C5            1 RES     
   27050 C5        -379.8333  -287.4573   538.5138 C5            1 RES     
   27051 C5        -378.3527  -287.7139   538.2094 C5            1 RES     
   27052 C5        -378.0794  -288.3264   536.8401 C5            1 RES     
   27053 C5        -385.1055  -283.7787   541.0435 C5            1 RES     
   27054 C0        -385.2816  -283.1581   542.8916 C0            1 RES     
   27055 C5        -384.9766  -284.4680   543.6626 C5            1 RES     
   27056 C5        -385.6105  -285.8159   543.0654 C5            1 RES     
   27057 C5        -387.0570  -286.0646   543.5263 C5            1 RES     
   27058 C5        -388.0678  -284.9062   543.3622 C5            1 RES     
   27059 C5        -388.1778  -284.3001   541.9461 C5            1 RES     
   27060 C5        -389.3968  -283.4140   541.7257 C5            1 RES     
   27061 C5        -389.4992  -282.2960   542.7637 C5            1 RES     
   27062 C5        -390.8496  -281.5942   542.6628 C5            1 RES     
   27063 C5        -391.0541  -280.7208   543.8932 C5            1 RES     
   27064 C5        -392.4502  -280.1478   543.9778 C5            1 RES     
   27065 C5        -384.6707  -287.0443   543.3153 C5            1 RES     
   27066 C5        -384.7899  -288.3804   542.4861 C5            1 RES     
   27067 C5        -385.9222  -289.4184   542.7148 C5            1 RES     
   27068 C5        -386.0330  -289.8450   544.1842 C5            1 RES     
   27069 C5        -386.9183  -291.0924   544.4047 C5            1 RES     
   27070 C5        -387.3058  -291.2656   545.8899 C5            1 RES     
   27071 C5        -386.1343  -291.3693   546.8889 C5            1 RES     
   27072 C5        -385.2704  -292.6383   546.7660 C5            1 RES     
   27073 C5        -386.0216  -293.9618   547.0120 C5            1 RES     
   27074 C5        -386.6512  -294.0547   548.4047 C5            1 RES     
   27075 H6        -391.2903  -295.0907   531.2018 H6            1 RES     
   27076 H6        -390.1164  -296.3587   531.7158 H6            1 RES     
   27077 H6        -391.7467  -296.2731   532.4577 H6            1 RES     
   27078 H6        -391.2470  -294.0796   533.4836 H6            1 RES     
   27079 H6        -390.0598  -295.3168   534.0560 H6            1 RES     
   27080 H6        -388.3359  -294.3960   532.4363 H6            1 RES     
   27081 H6        -389.5912  -293.3175   531.7791 H6            1 RES     
   27082 H6        -389.7410  -292.0063   533.8937 H6            1 RES     
   27083 H6        -388.1646  -291.8797   533.0339 H6            1 RES     
   27084 H6        -387.0291  -293.2656   534.7557 H6            1 RES     
   27085 H6        -388.5929  -293.5476   535.5290 H6            1 RES     
   27086 H6        -387.3883  -292.1591   537.0121 H6            1 RES     
   27087 H6        -388.7563  -291.1853   536.3995 H6            1 RES     
   27088 H6        -385.7734  -290.8596   535.7857 H6            1 RES     
   27089 H6        -386.9428  -289.7011   535.1692 H6            1 RES     
   27090 H6        -385.1484  -288.9574   536.9240 H6            1 RES     
   27091 H6        -385.9076  -289.9506   538.1663 H6            1 RES     
   27092 H6        -386.8907  -287.1355   537.1322 H6            1 RES     
   27093 H6        -387.7119  -288.1557   538.3298 H6            1 RES     
   27094 H6        -386.2415  -287.3141   540.2181 H6            1 RES     
   27095 H6        -387.3497  -286.1856   539.4794 H6            1 RES     
   27096 H6        -385.8349  -284.5172   539.0141 H6            1 RES     
   27097 H6        -383.4184  -284.7409   538.4843 H6            1 RES     
   27098 H6        -384.6674  -285.6374   537.6382 H6            1 RES     
   27099 H6        -384.0885  -287.8115   538.8777 H6            1 RES     
   27100 H6        -382.6500  -286.9221   539.4646 H6            1 RES     
   27101 H6        -382.0677  -286.5913   536.9083 H6            1 RES     
   27102 H6        -383.4354  -287.5950   536.4917 H6            1 RES     
   27103 H6        -381.2678  -288.8718   536.4006 H6            1 RES     
   27104 H6        -382.4375  -289.6154   537.5217 H6            1 RES     
   27105 H6        -381.3435  -288.7043   539.4524 H6            1 RES     
   27106 H6        -380.1617  -289.6420   538.5564 H6            1 RES     
   27107 H6        -380.2023  -286.6612   537.8462 H6            1 RES     
   27108 H6        -379.8631  -287.0292   539.5376 H6            1 RES     
   27109 H6        -377.9249  -288.3735   538.9932 H6            1 RES     
   27110 H6        -377.8343  -286.7307   538.2623 H6            1 RES     
   27111 H6        -378.4930  -287.6907   536.0302 H6            1 RES     
   27112 H6        -376.9786  -288.4059   536.7030 H6            1 RES     
   27113 H6        -378.5109  -289.3461   536.7747 H6            1 RES     
   27114 H6        -385.6891  -282.9757   540.5381 H6            1 RES     
   27115 H6        -384.0803  -283.4365   540.7882 H6            1 RES     
   27116 H6        -383.8727  -284.5218   543.6031 H6            1 RES     
   27117 H6        -385.2670  -284.3519   544.7252 H6            1 RES     
   27118 H6        -385.6521  -285.8013   541.9924 H6            1 RES     
   27119 H6        -387.4462  -286.9313   542.9632 H6            1 RES     
   27120 H6        -387.0417  -286.3306   544.6001 H6            1 RES     
   27121 H6        -389.0568  -285.3197   543.6498 H6            1 RES     
   27122 H6        -387.7988  -284.1068   544.0842 H6            1 RES     
   27123 H6        -387.3485  -283.6424   541.7754 H6            1 RES     
   27124 H6        -388.1884  -285.0954   541.1836 H6            1 RES     
   27125 H6        -389.3515  -282.9676   540.7051 H6            1 RES     
   27126 H6        -390.2881  -284.0690   541.7881 H6            1 RES     
   27127 H6        -389.4614  -282.7561   543.7691 H6            1 RES     
   27128 H6        -388.6552  -281.5743   542.6730 H6            1 RES     
   27129 H6        -390.9177  -280.9971   541.7267 H6            1 RES     
   27130 H6        -391.6435  -282.3700   542.6628 H6            1 RES     
   27131 H6        -390.3417  -279.8868   543.8390 H6            1 RES     
   27132 H6        -390.8870  -281.3315   544.8124 H6            1 RES     
   27133 H6        -392.6318  -279.4753   543.1164 H6            1 RES     
   27134 H6        -392.5394  -279.5731   544.9246 H6            1 RES     
   27135 H6        -393.1932  -280.9724   543.9881 H6            1 RES     
   27136 H6        -384.6105  -287.2626   544.3965 H6            1 RES     
   27137 H6        -383.6693  -286.6814   542.9902 H6            1 RES     
   27138 H6        -384.7185  -288.1692   541.4024 H6            1 RES     
   27139 H6        -383.8582  -288.9424   542.7141 H6            1 RES     
   27140 H6        -386.9063  -289.0622   542.3450 H6            1 RES     
   27141 H6        -385.6602  -290.3167   542.1047 H6            1 RES     
   27142 H6        -386.4562  -288.9791   544.7328 H6            1 RES     
   27143 H6        -385.0218  -290.0794   544.5794 H6            1 RES     
   27144 H6        -386.4046  -292.0027   544.0175 H6            1 RES     
   27145 H6        -387.8702  -290.9824   543.8408 H6            1 RES     
   27146 H6        -387.9782  -292.1420   546.0038 H6            1 RES     
   27147 H6        -387.8985  -290.3691   546.1729 H6            1 RES     
   27148 H6        -386.5474  -291.3188   547.9169 H6            1 RES     
   27149 H6        -385.4811  -290.4789   546.7826 H6            1 RES     
   27150 H6        -384.8030  -292.6709   545.7594 H6            1 RES     
   27151 H6        -384.4492  -292.5643   547.5134 H6            1 RES     
   27152 H6        -386.8068  -294.1095   546.2424 H6            1 RES     
   27153 H6        -385.2905  -294.7932   546.9112 H6            1 RES     
   27154 H6        -385.8767  -293.9296   549.1913 H6            1 RES     
   27155 H6        -387.4407  -293.2874   548.5403 H6            1 RES     
   27156 H6        -387.1262  -295.0504   548.5306 H6            1 RES     
   27157 C0        -386.3345  -271.8112   553.8404 C0            1 RES     
   27158 C0        -387.8246  -272.8252   553.4247 C0            1 RES     
   27159 C0        -387.8300  -273.9609   554.2245 C0            1 RES     
   27160 S1        -388.9496  -275.1876   553.7845 S1            1 RES     
   27161 C0        -389.6946  -274.5506   552.4449 C0            1 RES     
   27162 C0        -388.9731  -273.1746   552.3685 C0            1 RES     
   27163 C0        -386.5451  -274.1760   554.8910 C0            1 RES     
   27164 C0        -385.7566  -273.2512   553.9779 C0            1 RES     
   27165 C0        -385.1764  -273.9437   552.9602 C0            1 RES     
   27166 C0        -385.2688  -275.3305   553.0503 C0            1 RES     
   27167 S1        -386.0498  -275.9089   554.5322 S1            1 RES     
   27168 H2        -389.1976  -272.5609   551.5043 H2            1 RES     
   27169 H2        -384.8500  -273.4863   552.0406 H2            1 RES     
   27170 N3        -391.5539  -277.9917   551.6356 N3            1 RES     
   27171 C0        -390.7483  -277.0194   552.0896 C0            1 RES     
   27172 C0        -390.8031  -275.5976   551.7056 C0            1 RES     
   27173 C0        -391.8940  -275.4321   550.7223 C0            1 RES     
   27174 N3        -392.2473  -274.2496   550.1259 N3            1 RES     
   27175 S1        -393.5388  -274.6648   549.1590 S1            1 RES     
   27176 N3        -393.7075  -276.2909   549.3988 N3            1 RES     
   27177 C0        -392.7318  -276.5493   550.2798 C0            1 RES     
   27178 C0        -392.5604  -277.8345   550.7324 C0            1 RES     
   27179 H4        -390.0152  -277.3713   552.7809 H4            1 RES     
   27180 C5        -375.2313  -262.4616   566.7058 C5            1 RES     
   27181 C5        -376.2998  -263.1149   565.7838 C5            1 RES     
   27182 C5        -376.1475  -262.7372   564.2737 C5            1 RES     
   27183 C5        -376.9785  -263.5773   563.1866 C5            1 RES     
   27184 C5        -378.5453  -263.3778   563.0085 C5            1 RES     
   27185 C5        -379.4933  -264.3860   562.0801 C5            1 RES     
   27186 C5        -379.6129  -264.4387   560.4319 C5            1 RES     
   27187 C5        -380.8326  -265.1984   559.4244 C5            1 RES     
   27188 C5        -381.0268  -266.7618   558.7702 C5            1 RES     
   27189 C5        -382.2280  -267.7236   557.8342 C5            1 RES     
   27190 C5        -382.6945  -268.0320   556.1425 C5            1 RES     
   27191 C5        -382.1682  -266.6114   555.5273 C5            1 RES     
   27192 C5        -382.6696  -265.2186   556.1256 C5            1 RES     
   27193 C5        -381.7353  -263.9636   555.8425 C5            1 RES     
   27194 C5        -382.3140  -262.5612   556.2722 C5            1 RES     
   27195 C5        -383.7344  -262.2772   555.7367 C5            1 RES     
   27196 C5        -383.8770  -262.4319   554.2031 C5            1 RES     
   27197 C5        -384.1606  -261.1465   553.4171 C5            1 RES     
   27198 C5        -383.0858  -260.0721   553.5411 C5            1 RES     
   27199 C5        -383.7876  -269.2845   555.0760 C5            1 RES     
   27200 C0        -385.3374  -270.4726   554.9424 C0            1 RES     
   27201 C5        -386.3530  -269.7185   555.8386 C5            1 RES     
   27202 C5        -385.7782  -269.0819   557.1949 C5            1 RES     
   27203 C5        -385.7265  -270.0820   558.3627 C5            1 RES     
   27204 C5        -385.0428  -271.4448   558.1059 C5            1 RES     
   27205 C5        -383.6064  -271.3851   557.5418 C5            1 RES     
   27206 C5        -382.8374  -272.6976   557.6180 C5            1 RES     
   27207 C5        -383.5918  -273.8534   556.9599 C5            1 RES     
   27208 C5        -382.9138  -275.1829   557.2747 C5            1 RES     
   27209 C5        -383.8459  -276.3242   556.8914 C5            1 RES     
   27210 C5        -383.3421  -277.6715   557.3559 C5            1 RES     
   27211 C5        -386.5264  -267.7548   557.5607 C5            1 RES     
   27212 C5        -385.9185  -266.6891   558.5514 C5            1 RES     
   27213 C5        -385.8823  -266.8909   560.0909 C5            1 RES     
   27214 C5        -387.2625  -267.2343   560.6658 C5            1 RES     
   27215 C5        -387.3377  -267.1320   562.2060 C5            1 RES     
   27216 C5        -388.5962  -267.8305   562.7665 C5            1 RES     
   27217 C5        -389.9498  -267.3294   562.2208 C5            1 RES     
   27218 C5        -390.3332  -265.8923   562.6202 C5            1 RES     
   27219 C5        -390.4909  -265.6596   564.1359 C5            1 RES     
   27220 C5        -391.5662  -266.5404   564.7784 C5            1 RES     
   27221 H6        -374.1993  -262.7675   566.4189 H6            1 RES     
   27222 H6        -375.2803  -261.3518   566.6979 H6            1 RES     
   27223 H6        -375.3726  -262.7915   567.7630 H6            1 RES     
   27224 H6        -376.1690  -264.2108   565.9015 H6            1 RES     
   27225 H6        -377.3039  -262.8270   566.1557 H6            1 RES     
   27226 H6        -376.2844  -261.6382   564.1580 H6            1 RES     
   27227 H6        -375.0708  -262.9374   564.0576 H6            1 RES     
   27228 H6        -376.7727  -264.6412   563.4145 H6            1 RES     
   27229 H6        -376.5208  -263.3292   562.2080 H6            1 RES     
   27230 H6        -378.7201  -262.3071   562.7489 H6            1 RES     
   27231 H6        -378.9200  -263.4806   564.0551 H6            1 RES     
   27232 H6        -380.5090  -264.0766   562.4124 H6            1 RES     
   27233 H6        -379.3121  -265.4029   562.4689 H6            1 RES     
   27234 H6        -379.7572  -263.3454   560.2443 H6            1 RES     
   27235 H6        -378.5996  -264.6512   560.0333 H6            1 RES     
   27236 H6        -380.7453  -264.5360   558.5382 H6            1 RES     
   27237 H6        -381.7702  -264.8818   559.9297 H6            1 RES     
   27238 H6        -380.0459  -266.9541   558.2887 H6            1 RES     
   27239 H6        -381.0116  -267.3087   559.7349 H6            1 RES     
   27240 H6        -383.1507  -267.5257   558.3883 H6            1 RES     
   27241 H6        -381.9066  -268.7261   558.1461 H6            1 RES     
   27242 H6        -381.7663  -268.5745   555.8544 H6            1 RES     
   27243 H6        -382.1696  -266.5878   554.4191 H6            1 RES     
   27244 H6        -381.0791  -266.5658   555.7938 H6            1 RES     
   27245 H6        -382.7534  -265.2498   557.2300 H6            1 RES     
   27246 H6        -383.6732  -265.0430   555.7082 H6            1 RES     
   27247 H6        -381.4721  -263.9193   554.7725 H6            1 RES     
   27248 H6        -380.7516  -264.0678   556.3570 H6            1 RES     
   27249 H6        -381.6287  -261.7462   555.9350 H6            1 RES     
   27250 H6        -382.3585  -262.4859   557.3835 H6            1 RES     
   27251 H6        -384.3926  -263.0196   556.2293 H6            1 RES     
   27252 H6        -384.1261  -261.2917   556.0795 H6            1 RES     
   27253 H6        -383.0109  -262.9430   553.7512 H6            1 RES     
   27254 H6        -384.7471  -263.0970   554.0218 H6            1 RES     
   27255 H6        -385.1344  -260.7240   553.7420 H6            1 RES     
   27256 H6        -384.2467  -261.4326   552.3452 H6            1 RES     
   27257 H6        -382.0966  -260.4603   553.2222 H6            1 RES     
   27258 H6        -383.3625  -259.2193   552.8831 H6            1 RES     
   27259 H6        -383.0246  -259.6989   554.5839 H6            1 RES     
   27260 H6        -382.9938  -270.0059   554.7754 H6            1 RES     
   27261 H6        -383.8652  -268.7066   554.1308 H6            1 RES     
   27262 H6        -386.6985  -268.9082   555.1684 H6            1 RES     
   27263 H6        -387.2130  -270.3789   556.0655 H6            1 RES     
   27264 H6        -384.7711  -268.7273   557.0790 H6            1 RES     
   27265 H6        -385.1982  -269.5947   559.2011 H6            1 RES     
   27266 H6        -386.7625  -270.2961   558.6867 H6            1 RES     
   27267 H6        -385.0184  -271.9647   559.0862 H6            1 RES     
   27268 H6        -385.6851  -272.0299   557.4148 H6            1 RES     
   27269 H6        -383.6454  -271.1714   556.4919 H6            1 RES     
   27270 H6        -383.0180  -270.6112   558.0601 H6            1 RES     
   27271 H6        -381.8451  -272.5755   557.1247 H6            1 RES     
   27272 H6        -382.6761  -272.9158   558.6921 H6            1 RES     
   27273 H6        -384.6016  -273.9044   557.4088 H6            1 RES     
   27274 H6        -383.7001  -273.6992   555.8617 H6            1 RES     
   27275 H6        -381.9366  -275.2644   556.7494 H6            1 RES     
   27276 H6        -382.7476  -275.2354   558.3710 H6            1 RES     
   27277 H6        -383.9244  -276.3444   555.7961 H6            1 RES     
   27278 H6        -384.8446  -276.1603   557.3618 H6            1 RES     
   27279 H6        -382.3822  -277.9055   556.8548 H6            1 RES     
   27280 H6        -384.0981  -278.4416   557.0915 H6            1 RES     
   27281 H6        -383.2108  -277.6621   558.4581 H6            1 RES     
   27282 H6        -387.5780  -267.9710   557.8206 H6            1 RES     
   27283 H6        -386.5280  -267.1807   556.6064 H6            1 RES     
   27284 H6        -384.9124  -266.3775   558.2127 H6            1 RES     
   27285 H6        -386.5440  -265.7805   558.4129 H6            1 RES     
   27286 H6        -385.1381  -267.6534   560.4021 H6            1 RES     
   27287 H6        -385.5467  -265.9212   560.5324 H6            1 RES     
   27288 H6        -387.4889  -268.2712   560.3441 H6            1 RES     
   27289 H6        -388.0215  -266.5395   560.2478 H6            1 RES     
   27290 H6        -387.2991  -266.0643   562.5235 H6            1 RES     
   27291 H6        -386.4627  -267.6460   562.6602 H6            1 RES     
   27292 H6        -388.5934  -267.7781   563.8758 H6            1 RES     
   27293 H6        -388.5127  -268.9054   562.4972 H6            1 RES     
   27294 H6        -390.7440  -268.0195   562.5716 H6            1 RES     
   27295 H6        -389.9508  -267.4066   561.1141 H6            1 RES     
   27296 H6        -389.5754  -265.1842   562.2239 H6            1 RES     
   27297 H6        -391.3035  -265.6510   562.1318 H6            1 RES     
   27298 H6        -389.5239  -265.8216   564.6546 H6            1 RES     
   27299 H6        -390.7820  -264.5978   564.2899 H6            1 RES     
   27300 H6        -392.5485  -266.3776   564.2857 H6            1 RES     
   27301 H6        -391.2960  -267.6143   564.7147 H6            1 RES     
   27302 H6        -391.6623  -266.2821   565.8540 H6            1 RES     
   27303 C0        -393.3698  -282.3637   548.3227 C0            1 RES     
   27304 C0        -392.6082  -282.5897   549.9931 C0            1 RES     
   27305 C0        -393.5140  -282.1683   550.9583 C0            1 RES     
   27306 S1        -392.8935  -281.9978   552.5513 S1            1 RES     
   27307 C0        -391.2975  -282.4197   552.3778 C0            1 RES     
   27308 C0        -391.2777  -282.7678   550.8619 C0            1 RES     
   27309 C0        -394.6178  -281.3978   550.3842 C0            1 RES     
   27310 C0        -393.9174  -281.1093   549.0664 C0            1 RES     
   27311 C0        -393.2880  -279.9031   549.0987 C0            1 RES     
   27312 C0        -393.5456  -279.1231   550.2234 C0            1 RES     
   27313 S1        -394.7217  -279.8333   551.3426 S1            1 RES     
   27314 H2        -390.3089  -282.9930   550.4325 H2            1 RES     
   27315 H2        -392.4871  -279.6327   548.4302 H2            1 RES     
   27316 N3        -390.4043  -281.2207   556.0816 N3            1 RES     
   27317 C0        -390.9641  -281.4503   554.8840 C0            1 RES     
   27318 C0        -390.3778  -282.2456   553.7905 C0            1 RES     
   27319 C0        -389.0581  -282.7363   554.2398 C0            1 RES     
   27320 N3        -388.2055  -283.5068   553.4926 N3            1 RES     
   27321 S1        -386.9165  -283.7738   554.5136 S1            1 RES     
   27322 N3        -387.3208  -282.9495   555.8873 N3            1 RES     
   27323 C0        -388.5190  -282.4414   555.5695 C0            1 RES     
   27324 C0        -389.1897  -281.6778   556.4932 C0            1 RES     
   27325 H4        -391.9151  -280.9796   554.7689 H4            1 RES     
   27326 C5        -407.7893  -285.3847   535.7066 C5            1 RES     
   27327 C5        -406.6565  -285.3652   536.7719 C5            1 RES     
   27328 C5        -405.2609  -284.9476   536.2028 C5            1 RES     
   27329 C5        -404.0880  -284.5874   537.2386 C5            1 RES     
   27330 C5        -403.3371  -285.7193   538.0639 C5            1 RES     
   27331 C5        -402.2942  -285.3909   539.3215 C5            1 RES     
   27332 C5        -400.7388  -284.8368   539.2362 C5            1 RES     
   27333 C5        -399.4892  -284.8223   540.4684 C5            1 RES     
   27334 C5        -399.0502  -283.7281   541.7014 C5            1 RES     
   27335 C5        -397.9035  -283.5994   543.0842 C5            1 RES     
   27336 C5        -396.2228  -283.1049   543.4092 C5            1 RES     
   27337 C5        -395.6299  -283.4177   541.9178 C5            1 RES     
   27338 C5        -395.7956  -284.8590   541.2513 C5            1 RES     
   27339 C5        -395.6789  -284.9097   539.6664 C5            1 RES     
   27340 C5        -395.6602  -286.3484   539.0212 C5            1 RES     
   27341 C5        -394.6187  -287.3029   539.6453 C5            1 RES     
   27342 C5        -393.1762  -286.7420   539.6662 C5            1 RES     
   27343 C5        -392.1580  -287.4605   538.7731 C5            1 RES     
   27344 C5        -392.4939  -287.4500   537.2859 C5            1 RES     
   27345 C5        -395.0374  -282.6709   544.9282 C5            1 RES     
   27346 C0        -394.5409  -282.9307   546.8037 C0            1 RES     
   27347 C5        -394.8942  -284.4290   546.9873 C5            1 RES     
   27348 C5        -396.2549  -284.9341   546.3025 C5            1 RES     
   27349 C5        -397.5002  -284.6939   547.1732 C5            1 RES     
   27350 C5        -397.7099  -283.2718   547.7424 C5            1 RES     
   27351 C5        -397.6909  -282.1215   546.7122 C5            1 RES     
   27352 C5        -398.2307  -280.7945   547.2296 C5            1 RES     
   27353 C5        -397.5281  -280.3393   548.5091 C5            1 RES     
   27354 C5        -398.2583  -279.1511   549.1267 C5            1 RES     
   27355 C5        -397.7439  -278.9270   550.5421 C5            1 RES     
   27356 C5        -398.5529  -277.9014   551.3026 C5            1 RES     
   27357 C5        -396.1281  -286.4177   545.8149 C5            1 RES     
   27358 C5        -397.0990  -287.0377   544.7380 C5            1 RES     
   27359 C5        -398.5625  -287.4483   545.0568 C5            1 RES     
   27360 C5        -398.6538  -288.3849   546.2683 C5            1 RES     
   27361 C5        -400.0329  -289.0641   546.4269 C5            1 RES     
   27362 C5        -400.2072  -289.6880   547.8291 C5            1 RES     
   27363 C5        -399.1477  -290.7303   548.2442 C5            1 RES     
   27364 C5        -399.1652  -292.0462   547.4444 C5            1 RES     
   27365 C5        -400.4729  -292.8552   547.5535 C5            1 RES     
   27366 C5        -400.8152  -293.2686   548.9876 C5            1 RES     
   27367 H6        -407.9372  -284.3812   535.2462 H6            1 RES     
   27368 H6        -407.5989  -286.1164   534.8928 H6            1 RES     
   27369 H6        -408.7640  -285.6593   536.1770 H6            1 RES     
   27370 H6        -406.9755  -284.6265   537.5365 H6            1 RES     
   27371 H6        -406.5998  -286.3694   537.2386 H6            1 RES     
   27372 H6        -404.9412  -285.6932   535.4400 H6            1 RES     
   27373 H6        -405.4740  -284.0062   535.6421 H6            1 RES     
   27374 H6        -404.5304  -283.8580   537.9444 H6            1 RES     
   27375 H6        -403.3107  -284.0735   536.6383 H6            1 RES     
   27376 H6        -402.8754  -286.4204   537.3292 H6            1 RES     
   27377 H6        -404.1849  -286.2932   538.5090 H6            1 RES     
   27378 H6        -402.1936  -286.4022   539.7744 H6            1 RES     
   27379 H6        -402.8693  -284.7668   540.0270 H6            1 RES     
   27380 H6        -400.3510  -285.5575   538.4736 H6            1 RES     
   27381 H6        -400.7628  -283.8642   538.7030 H6            1 RES     
   27382 H6        -398.6036  -284.8570   539.8004 H6            1 RES     
   27383 H6        -399.5750  -285.8479   540.8872 H6            1 RES     
   27384 H6        -398.9834  -282.7601   541.1633 H6            1 RES     
   27385 H6        -400.0275  -283.7249   542.2256 H6            1 RES     
   27386 H6        -398.0572  -284.5576   543.5897 H6            1 RES     
   27387 H6        -398.4553  -282.8603   543.6799 H6            1 RES     
   27388 H6        -396.3679  -282.0223   543.1948 H6            1 RES     
   27389 H6        -394.6034  -283.0284   541.7651 H6            1 RES     
   27390 H6        -396.2560  -282.7994   541.2213 H6            1 RES     
   27391 H6        -396.7895  -285.3004   541.4636 H6            1 RES     
   27392 H6        -395.0276  -285.5034   541.7065 H6            1 RES     
   27393 H6        -394.7785  -284.3666   539.3339 H6            1 RES     
   27394 H6        -396.5188  -284.3596   539.1815 H6            1 RES     
   27395 H6        -395.4707  -286.2715   537.9232 H6            1 RES     
   27396 H6        -396.6584  -286.8327   539.1283 H6            1 RES     
   27397 H6        -394.9502  -287.4639   540.6898 H6            1 RES     
   27398 H6        -394.6485  -288.3185   539.1873 H6            1 RES     
   27399 H6        -393.1434  -285.6618   539.4474 H6            1 RES     
   27400 H6        -392.7990  -286.8502   540.7046 H6            1 RES     
   27401 H6        -392.0485  -288.5119   539.1123 H6            1 RES     
   27402 H6        -391.1811  -286.9467   538.9145 H6            1 RES     
   27403 H6        -392.6092  -286.4119   536.9114 H6            1 RES     
   27404 H6        -391.6609  -287.9372   536.7330 H6            1 RES     
   27405 H6        -393.4220  -288.0251   537.0905 H6            1 RES     
   27406 H6        -395.1500  -281.5626   544.9341 H6            1 RES     
   27407 H6        -394.0514  -282.7435   544.4225 H6            1 RES     
   27408 H6        -394.0319  -284.9321   546.5092 H6            1 RES     
   27409 H6        -394.8966  -284.6826   548.0656 H6            1 RES     
   27410 H6        -396.4528  -284.4275   545.3766 H6            1 RES     
   27411 H6        -398.3887  -284.9472   546.5683 H6            1 RES     
   27412 H6        -397.4629  -285.3853   548.0362 H6            1 RES     
   27413 H6        -398.7008  -283.2850   548.2423 H6            1 RES     
   27414 H6        -396.9314  -283.0885   548.5124 H6            1 RES     
   27415 H6        -396.6764  -281.8993   546.4461 H6            1 RES     
   27416 H6        -398.2627  -282.3977   545.8119 H6            1 RES     
   27417 H6        -398.1100  -280.0130   546.4438 H6            1 RES     
   27418 H6        -399.3117  -280.9390   547.4242 H6            1 RES     
   27419 H6        -397.5911  -281.1615   549.2467 H6            1 RES     
   27420 H6        -396.4534  -280.1093   548.3265 H6            1 RES     
   27421 H6        -398.1330  -278.2396   548.5014 H6            1 RES     
   27422 H6        -399.3367  -279.4051   549.1948 H6            1 RES     
   27423 H6        -396.7084  -278.5675   550.4735 H6            1 RES     
   27424 H6        -397.7984  -279.8852   551.1118 H6            1 RES     
   27425 H6        -398.4666  -276.9142   550.8073 H6            1 RES     
   27426 H6        -398.1553  -277.8349   552.3380 H6            1 RES     
   27427 H6        -399.6151  -278.2205   551.3466 H6            1 RES     
   27428 H6        -396.0265  -287.0950   546.6816 H6            1 RES     
   27429 H6        -395.1612  -286.4326   545.2625 H6            1 RES     
   27430 H6        -397.0975  -286.4230   543.8181 H6            1 RES     
   27431 H6        -396.6130  -287.9886   544.4288 H6            1 RES     
   27432 H6        -399.2281  -286.5717   545.2004 H6            1 RES     
   27433 H6        -398.9442  -287.9929   544.1593 H6            1 RES     
   27434 H6        -398.4315  -287.7670   547.1619 H6            1 RES     
   27435 H6        -397.8945  -289.1898   546.1726 H6            1 RES     
   27436 H6        -400.1800  -289.8283   545.6290 H6            1 RES     
   27437 H6        -400.8398  -288.3073   546.3156 H6            1 RES     
   27438 H6        -401.2239  -290.1247   547.9232 H6            1 RES     
   27439 H6        -400.1490  -288.8534   548.5606 H6            1 RES     
   27440 H6        -399.2922  -290.9653   549.3184 H6            1 RES     
   27441 H6        -398.1377  -290.2775   548.1681 H6            1 RES     
   27442 H6        -398.9630  -291.8307   546.3742 H6            1 RES     
   27443 H6        -398.3336  -292.6833   547.8198 H6            1 RES     
   27444 H6        -401.3194  -292.2815   547.1236 H6            1 RES     
   27445 H6        -400.3528  -293.7813   546.9502 H6            1 RES     
   27446 H6        -399.9871  -293.8628   549.4298 H6            1 RES     
   27447 H6        -401.0130  -292.3822   549.6244 H6            1 RES     
   27448 H6        -401.7349  -293.8907   548.9840 H6            1 RES     
   27449 C0        -387.3555  -278.4887   560.1594 C0            1 RES     
   27450 C0        -389.2012  -278.4361   560.0501 C0            1 RES     
   27451 C0        -389.7068  -279.6743   560.4252 C0            1 RES     
   27452 S1        -391.3718  -279.9403   560.0949 S1            1 RES     
   27453 C0        -391.8420  -278.5194   559.3770 C0            1 RES     
   27454 C0        -390.5023  -277.7317   559.4437 C0            1 RES     
   27455 C0        -388.6697  -280.7057   560.4726 C0            1 RES     
   27456 C0        -387.6596  -279.9273   559.6453 C0            1 RES     
   27457 C0        -387.7328  -280.2710   558.3306 C0            1 RES     
   27458 C0        -388.5625  -281.3510   558.0392 C0            1 RES     
   27459 S1        -389.2833  -282.1154   559.4662 S1            1 RES     
   27460 H2        -390.4840  -276.7702   558.9447 H2            1 RES     
   27461 H2        -387.3602  -279.6499   557.5325 H2            1 RES     
   27462 N3        -395.3977  -280.0205   558.3488 N3            1 RES     
   27463 C0        -394.1280  -279.8202   558.7338 C0            1 RES     
   27464 C0        -393.4462  -278.5172   558.8311 C0            1 RES     
   27465 C0        -394.4032  -277.4694   558.4179 C0            1 RES     
   27466 N3        -394.1319  -276.1267   558.3690 N3            1 RES     
   27467 S1        -395.5719  -275.4502   557.8752 S1            1 RES     
   27468 N3        -396.5726  -276.7495   557.6740 N3            1 RES     
   27469 C0        -395.7776  -277.7734   558.0126 C0            1 RES     
   27470 C0        -396.2774  -279.0519   557.9724 C0            1 RES     
   27471 H4        -393.6134  -280.7255   558.9680 H4            1 RES     
   27472 C5        -371.0416  -281.8239   570.1066 C5            1 RES     
   27473 C5        -372.4242  -281.4513   569.5000 C5            1 RES     
   27474 C5        -372.3326  -280.5531   568.2229 C5            1 RES     
   27475 C5        -373.6514  -280.3577   567.3279 C5            1 RES     
   27476 C5        -374.8490  -279.4310   567.8110 C5            1 RES     
   27477 C5        -376.3309  -279.3855   567.0503 C5            1 RES     
   27478 C5        -376.7221  -278.6411   565.6267 C5            1 RES     
   27479 C5        -378.3010  -278.2467   564.9698 C5            1 RES     
   27480 C5        -379.4311  -279.0886   564.0085 C5            1 RES     
   27481 C5        -381.0954  -278.8917   563.3487 C5            1 RES     
   27482 C5        -381.9186  -278.1741   561.9408 C5            1 RES     
   27483 C5        -380.8000  -277.0260   561.6183 C5            1 RES     
   27484 C5        -380.3416  -275.9850   562.7387 C5            1 RES     
   27485 C5        -378.9282  -275.2937   562.5088 C5            1 RES     
   27486 C5        -378.5546  -274.1362   563.5122 C5            1 RES     
   27487 C5        -379.6432  -273.0495   563.6507 C5            1 RES     
   27488 C5        -380.0913  -272.4254   562.3069 C5            1 RES     
   27489 C5        -379.7366  -270.9491   562.0950 C5            1 RES     
   27490 C5        -378.2433  -270.6415   562.1191 C5            1 RES     
   27491 C5        -383.6766  -278.1935   561.0408 C5            1 RES     
   27492 C0        -385.6225  -278.3756   561.1515 C0            1 RES     
   27493 C5        -385.8902  -277.7377   562.5388 C5            1 RES     
   27494 C5        -384.8503  -278.0983   563.7067 C5            1 RES     
   27495 C5        -385.1752  -279.4196   564.4245 C5            1 RES     
   27496 C5        -385.4133  -280.6695   563.5461 C5            1 RES     
   27497 C5        -384.2976  -281.0065   562.5330 C5            1 RES     
   27498 C5        -384.3848  -282.4030   561.9311 C5            1 RES     
   27499 C5        -385.7471  -282.6781   561.2935 C5            1 RES     
   27500 C5        -385.8798  -284.1536   560.9309 C5            1 RES     
   27501 C5        -387.3352  -284.4611   560.6056 C5            1 RES     
   27502 C5        -387.5960  -285.9401   560.4344 C5            1 RES     
   27503 C5        -384.6671  -276.8960   564.6946 C5            1 RES     
   27504 C5        -383.4211  -276.7743   565.6535 C5            1 RES     
   27505 C5        -383.2565  -277.6318   566.9378 C5            1 RES     
   27506 C5        -384.4819  -277.5454   567.8567 C5            1 RES     
   27507 C5        -384.2395  -278.1170   569.2720 C5            1 RES     
   27508 C5        -385.5647  -278.3546   570.0292 C5            1 RES     
   27509 C5        -386.4800  -277.1237   570.1973 C5            1 RES     
   27510 C5        -385.9325  -276.0119   571.1116 C5            1 RES     
   27511 C5        -385.6892  -276.4346   572.5739 C5            1 RES     
   27512 C5        -386.9526  -276.9317   573.2821 C5            1 RES     
   27513 H6        -370.4142  -282.3906   569.3812 H6            1 RES     
   27514 H6        -370.4677  -280.9339   570.4421 H6            1 RES     
   27515 H6        -371.1703  -282.4885   570.9945 H6            1 RES     
   27516 H6        -372.9059  -282.4156   569.2349 H6            1 RES     
   27517 H6        -373.0251  -280.9488   570.2847 H6            1 RES     
   27518 H6        -371.8539  -279.5847   568.4929 H6            1 RES     
   27519 H6        -371.5989  -281.0886   567.5741 H6            1 RES     
   27520 H6        -374.0364  -281.3789   567.1415 H6            1 RES     
   27521 H6        -373.2969  -279.9315   566.3679 H6            1 RES     
   27522 H6        -374.4399  -278.4039   567.9600 H6            1 RES     
   27523 H6        -375.0441  -279.8107   568.8425 H6            1 RES     
   27524 H6        -376.9357  -278.8434   567.8107 H6            1 RES     
   27525 H6        -376.6842  -280.4308   567.0286 H6            1 RES     
   27526 H6        -376.2641  -277.6419   565.8343 H6            1 RES     
   27527 H6        -376.0763  -279.0771   564.8370 H6            1 RES     
   27528 H6        -378.0046  -277.3752   564.3498 H6            1 RES     
   27529 H6        -378.8102  -277.8105   565.8558 H6            1 RES     
   27530 H6        -378.8138  -279.4578   563.1637 H6            1 RES     
   27531 H6        -379.5671  -279.9504   564.6933 H6            1 RES     
   27532 H6        -381.6504  -278.5763   564.2375 H6            1 RES     
   27533 H6        -381.3385  -279.9536   563.2113 H6            1 RES     
   27534 H6        -381.5074  -278.8789   561.1837 H6            1 RES     
   27535 H6        -380.9658  -276.5144   560.6490 H6            1 RES     
   27536 H6        -379.8425  -277.5899   561.4620 H6            1 RES     
   27537 H6        -380.2502  -276.4631   563.7340 H6            1 RES     
   27538 H6        -381.1308  -275.2194   562.7948 H6            1 RES     
   27539 H6        -378.8603  -274.8999   561.4810 H6            1 RES     
   27540 H6        -378.1001  -276.0381   562.5666 H6            1 RES     
   27541 H6        -377.5973  -273.6538   563.1987 H6            1 RES     
   27542 H6        -378.3710  -274.5517   564.5302 H6            1 RES     
   27543 H6        -380.5132  -273.5562   564.1123 H6            1 RES     
   27544 H6        -379.3618  -272.2608   564.3861 H6            1 RES     
   27545 H6        -379.7397  -273.0054   561.4376 H6            1 RES     
   27546 H6        -381.1997  -272.4789   562.2758 H6            1 RES     
   27547 H6        -380.2455  -270.3340   562.8664 H6            1 RES     
   27548 H6        -380.1374  -270.6576   561.0986 H6            1 RES     
   27549 H6        -377.7017  -271.2392   561.3572 H6            1 RES     
   27550 H6        -378.1021  -269.5623   561.8910 H6            1 RES     
   27551 H6        -377.8192  -270.8412   563.1244 H6            1 RES     
   27552 H6        -383.4765  -278.9727   560.2704 H6            1 RES     
   27553 H6        -383.5713  -277.2887   560.4055 H6            1 RES     
   27554 H6        -385.8307  -276.6557   562.3132 H6            1 RES     
   27555 H6        -386.9222  -277.9734   562.8652 H6            1 RES     
   27556 H6        -383.8498  -278.2151   563.3342 H6            1 RES     
   27557 H6        -384.3391  -279.6457   565.1097 H6            1 RES     
   27558 H6        -386.0880  -279.2728   565.0322 H6            1 RES     
   27559 H6        -385.5244  -281.5211   564.2491 H6            1 RES     
   27560 H6        -386.3731  -280.5346   563.0046 H6            1 RES     
   27561 H6        -384.3793  -280.3562   561.6846 H6            1 RES     
   27562 H6        -383.3049  -280.8937   562.9975 H6            1 RES     
   27563 H6        -383.5858  -282.5269   561.1635 H6            1 RES     
   27564 H6        -384.2018  -283.1217   562.7541 H6            1 RES     
   27565 H6        -386.5281  -282.4714   562.0493 H6            1 RES     
   27566 H6        -385.9262  -282.0220   560.4110 H6            1 RES     
   27567 H6        -385.2111  -284.4153   560.0812 H6            1 RES     
   27568 H6        -385.5973  -284.7552   561.8200 H6            1 RES     
   27569 H6        -387.5861  -283.9554   559.6636 H6            1 RES     
   27570 H6        -387.9846  -284.1013   561.4390 H6            1 RES     
   27571 H6        -387.0222  -286.3237   559.5679 H6            1 RES     
   27572 H6        -388.6828  -286.0889   560.2571 H6            1 RES     
   27573 H6        -387.3068  -286.4806   561.3598 H6            1 RES     
   27574 H6        -385.6041  -276.7156   565.2511 H6            1 RES     
   27575 H6        -384.5033  -276.0238   564.0219 H6            1 RES     
   27576 H6        -382.4810  -276.8253   565.0723 H6            1 RES     
   27577 H6        -383.4506  -275.7283   566.0291 H6            1 RES     
   27578 H6        -383.0214  -278.6930   566.7130 H6            1 RES     
   27579 H6        -382.3741  -277.2205   567.4856 H6            1 RES     
   27580 H6        -385.2931  -278.1105   567.3543 H6            1 RES     
   27581 H6        -384.7837  -276.4829   567.9731 H6            1 RES     
   27582 H6        -383.5653  -277.4430   569.8494 H6            1 RES     
   27583 H6        -383.7370  -279.1059   569.1971 H6            1 RES     
   27584 H6        -385.3554  -278.8081   571.0211 H6            1 RES     
   27585 H6        -386.1355  -279.1096   569.4468 H6            1 RES     
   27586 H6        -387.4549  -277.4668   570.5997 H6            1 RES     
   27587 H6        -386.7011  -276.6916   569.1997 H6            1 RES     
   27588 H6        -384.9846  -275.6186   570.6877 H6            1 RES     
   27589 H6        -386.6696  -275.1783   571.1119 H6            1 RES     
   27590 H6        -384.9060  -277.2185   572.6247 H6            1 RES     
   27591 H6        -385.3137  -275.5469   573.1280 H6            1 RES     
   27592 H6        -387.7437  -276.1520   573.2602 H6            1 RES     
   27593 H6        -387.3374  -277.8597   572.8119 H6            1 RES     
   27594 H6        -386.7155  -277.1660   574.3412 H6            1 RES     
   27595 C0        -399.8354  -281.1533   554.8260 C0            1 RES     
   27596 C0        -399.0708  -282.4082   555.9493 C0            1 RES     
   27597 C0        -399.4222  -282.1087   557.2594 C0            1 RES     
   27598 S1        -398.5654  -282.9579   558.4828 S1            1 RES     
   27599 C0        -397.5236  -283.9145   557.6140 C0            1 RES     
   27600 C0        -397.9435  -283.5208   556.1688 C0            1 RES     
   27601 C0        -399.9887  -280.7656   557.3885 C0            1 RES     
   27602 C0        -399.4680  -280.2644   556.0512 C0            1 RES     
   27603 C0        -398.2803  -279.6166   556.1984 C0            1 RES     
   27604 C0        -397.8779  -279.3949   557.5132 C0            1 RES     
   27605 S1        -399.0527  -279.9264   558.7288 S1            1 RES     
   27606 H2        -397.3459  -283.9333   555.3648 H2            1 RES     
   27607 H2        -397.5835  -279.4625   555.3908 H2            1 RES     
   27608 N3        -395.5355  -285.0207   560.8968 N3            1 RES     
   27609 C0        -396.3121  -284.4202   559.9821 C0            1 RES     
   27610 C0        -396.4494  -284.8129   558.5683 C0            1 RES     
   27611 C0        -395.5715  -285.9779   558.3309 C0            1 RES     
   27612 N3        -395.4221  -286.6228   557.1306 N3            1 RES     
   27613 S1        -394.3536  -287.8540   557.4737 S1            1 RES     
   27614 N3        -394.0066  -287.6436   559.0754 N3            1 RES     
   27615 C0        -394.7545  -286.5771   559.3888 C0            1 RES     
   27616 C0        -394.7309  -286.0964   560.6750 C0            1 RES     
   27617 H4        -396.8463  -283.5821   560.3713 H4            1 RES     
   27618 C5        -415.3100  -271.5320   548.1790 C5            1 RES     
   27619 C5        -414.2032  -272.4906   548.7029 C5            1 RES     
   27620 C5        -412.9232  -272.5286   547.8050 C5            1 RES     
   27621 C5        -411.5994  -273.2263   548.3876 C5            1 RES     
   27622 C5        -411.4811  -274.8069   548.5055 C5            1 RES     
   27623 C5        -410.2457  -275.5705   549.3225 C5            1 RES     
   27624 C5        -408.6819  -275.7876   548.8316 C5            1 RES     
   27625 C5        -407.4557  -276.8759   549.4578 C5            1 RES     
   27626 C5        -406.2929  -276.7650   550.7011 C5            1 RES     
   27627 C5        -405.0632  -277.7858   551.5316 C5            1 RES     
   27628 C5        -403.3644  -278.2871   551.3384 C5            1 RES     
   27629 C5        -403.2927  -278.1299   549.7124 C5            1 RES     
   27630 C5        -404.3338  -278.8838   548.7655 C5            1 RES     
   27631 C5        -404.5208  -278.2704   547.3104 C5            1 RES     
   27632 C5        -405.4064  -279.1132   546.3146 C5            1 RES     
   27633 C5        -404.9848  -280.5944   546.1990 C5            1 RES     
   27634 C5        -403.4924  -280.8037   545.8456 C5            1 RES     
   27635 C5        -403.2023  -281.4164   544.4705 C5            1 RES     
   27636 C5        -403.7093  -280.5988   543.2875 C5            1 RES     
   27637 C5        -401.9121  -279.1475   552.3638 C5            1 RES     
   27638 C0        -401.3498  -280.4029   553.7564 C0            1 RES     
   27639 C5        -402.4394  -281.4961   553.6117 C5            1 RES     
   27640 C5        -403.9405  -280.9845   553.3659 C5            1 RES     
   27641 C5        -404.6848  -280.6343   554.6658 C5            1 RES     
   27642 C5        -403.9765  -279.6863   555.6609 C5            1 RES     
   27643 C5        -403.4886  -278.3403   555.0820 C5            1 RES     
   27644 C5        -403.1110  -277.2977   556.1261 C5            1 RES     
   27645 C5        -402.0796  -277.8219   557.1259 C5            1 RES     
   27646 C5        -401.9183  -276.8479   558.2884 C5            1 RES     
   27647 C5        -401.1470  -277.5295   559.4104 C5            1 RES     
   27648 C5        -401.1173  -276.7108   560.6807 C5            1 RES     
   27649 C5        -404.7375  -281.9800   552.4555 C5            1 RES     
   27650 C5        -406.0468  -281.5558   551.6859 C5            1 RES     
   27651 C5        -407.4185  -281.3711   552.3903 C5            1 RES     
   27652 C5        -407.8180  -282.5992   553.2183 C5            1 RES     
   27653 C5        -409.2954  -282.5899   553.6717 C5            1 RES     
   27654 C5        -409.5586  -283.6224   554.7900 C5            1 RES     
   27655 C5        -409.2045  -285.0871   554.4579 C5            1 RES     
   27656 C5        -410.0764  -285.7496   553.3750 C5            1 RES     
   27657 C5        -411.5754  -285.8509   553.7204 C5            1 RES     
   27658 C5        -411.8541  -286.6593   554.9906 C5            1 RES     
   27659 H6        -414.9483  -270.4799   548.1213 H6            1 RES     
   27660 H6        -415.6905  -271.8246   547.1772 H6            1 RES     
   27661 H6        -416.1828  -271.5247   548.8752 H6            1 RES     
   27662 H6        -413.9316  -272.1138   549.7110 H6            1 RES     
   27663 H6        -414.6386  -273.5057   548.7998 H6            1 RES     
   27664 H6        -413.1977  -272.9118   546.7962 H6            1 RES     
   27665 H6        -412.6653  -271.4515   547.6651 H6            1 RES     
   27666 H6        -411.4433  -272.7761   549.3871 H6            1 RES     
   27667 H6        -410.7760  -272.9022   547.7201 H6            1 RES     
   27668 H6        -411.6105  -275.2306   547.4816 H6            1 RES     
   27669 H6        -412.4203  -275.0775   549.0449 H6            1 RES     
   27670 H6        -410.6514  -276.6043   549.3888 H6            1 RES     
   27671 H6        -410.2563  -275.1436   550.3402 H6            1 RES     
   27672 H6        -408.8870  -276.1817   547.8049 H6            1 RES     
   27673 H6        -408.2480  -274.7821   548.6548 H6            1 RES     
   27674 H6        -406.8588  -276.9972   548.5301 H6            1 RES     
   27675 H6        -408.0270  -277.8234   549.5591 H6            1 RES     
   27676 H6        -405.7880  -275.8010   550.4849 H6            1 RES     
   27677 H6        -407.0052  -276.5639   551.5270 H6            1 RES     
   27678 H6        -405.6389  -278.6893   551.7543 H6            1 RES     
   27679 H6        -405.0087  -277.2308   552.4775 H6            1 RES     
   27680 H6        -402.9172  -277.2840   551.5196 H6            1 RES     
   27681 H6        -402.2630  -278.2120   549.3104 H6            1 RES     
   27682 H6        -403.5731  -277.0620   549.5118 H6            1 RES     
   27683 H6        -405.3562  -278.8832   549.1927 H6            1 RES     
   27684 H6        -403.9907  -279.9275   548.6931 H6            1 RES     
   27685 H6        -403.5377  -278.0970   546.8418 H6            1 RES     
   27686 H6        -404.9796  -277.2552   547.3557 H6            1 RES     
   27687 H6        -405.3852  -278.6489   545.2989 H6            1 RES     
   27688 H6        -406.4730  -279.0974   546.6382 H6            1 RES     
   27689 H6        -405.1773  -281.0378   547.1956 H6            1 RES     
   27690 H6        -405.6456  -281.1693   545.5097 H6            1 RES     
   27691 H6        -402.9019  -279.8791   545.9562 H6            1 RES     
   27692 H6        -403.0778  -281.5161   546.5891 H6            1 RES     
   27693 H6        -403.6413  -282.4349   544.4216 H6            1 RES     
   27694 H6        -402.0970  -281.5103   544.3824 H6            1 RES     
   27695 H6        -403.2881  -279.5724   543.3036 H6            1 RES     
   27696 H6        -403.3877  -281.1007   542.3486 H6            1 RES     
   27697 H6        -404.8174  -280.5503   543.2920 H6            1 RES     
   27698 H6        -401.3888  -278.2367   552.7346 H6            1 RES     
   27699 H6        -401.2281  -279.4148   551.5307 H6            1 RES     
   27700 H6        -402.0907  -282.0565   552.7231 H6            1 RES     
   27701 H6        -402.4090  -282.1719   554.4888 H6            1 RES     
   27702 H6        -403.9698  -280.0907   552.7713 H6            1 RES     
   27703 H6        -405.6479  -280.1704   554.3886 H6            1 RES     
   27704 H6        -404.8991  -281.5731   555.2105 H6            1 RES     
   27705 H6        -404.7130  -279.4812   556.4656 H6            1 RES     
   27706 H6        -403.1156  -280.2295   556.1039 H6            1 RES     
   27707 H6        -402.5795  -278.4969   554.5356 H6            1 RES     
   27708 H6        -404.2531  -277.9029   554.4201 H6            1 RES     
   27709 H6        -402.7052  -276.3926   555.6170 H6            1 RES     
   27710 H6        -404.0427  -277.0194   556.6568 H6            1 RES     
   27711 H6        -402.4685  -278.7626   557.5591 H6            1 RES     
   27712 H6        -401.1036  -278.0362   556.6330 H6            1 RES     
   27713 H6        -401.4111  -275.9148   557.9572 H6            1 RES     
   27714 H6        -402.9290  -276.5998   558.6747 H6            1 RES     
   27715 H6        -400.1130  -277.6761   559.0704 H6            1 RES     
   27716 H6        -401.6313  -278.5054   559.6527 H6            1 RES     
   27717 H6        -400.5790  -275.7594   560.5005 H6            1 RES     
   27718 H6        -400.5897  -277.2948   561.4650 H6            1 RES     
   27719 H6        -402.1547  -276.5100   561.0207 H6            1 RES     
   27720 H6        -404.8909  -282.9379   552.9838 H6            1 RES     
   27721 H6        -404.0446  -282.1732   551.6053 H6            1 RES     
   27722 H6        -405.8523  -280.6685   551.0541 H6            1 RES     
   27723 H6        -406.2266  -282.3740   550.9550 H6            1 RES     
   27724 H6        -407.4532  -280.4578   553.0201 H6            1 RES     
   27725 H6        -408.1761  -281.2281   551.5820 H6            1 RES     
   27726 H6        -407.1506  -282.6130   554.1039 H6            1 RES     
   27727 H6        -407.6593  -283.5193   552.6168 H6            1 RES     
   27728 H6        -409.9670  -282.7659   552.7999 H6            1 RES     
   27729 H6        -409.5527  -281.5943   554.0944 H6            1 RES     
   27730 H6        -410.6159  -283.5555   555.1229 H6            1 RES     
   27731 H6        -408.9312  -283.3227   555.6569 H6            1 RES     
   27732 H6        -409.2805  -285.6839   555.3896 H6            1 RES     
   27733 H6        -408.1408  -285.1466   554.1481 H6            1 RES     
   27734 H6        -409.9635  -285.1952   552.4197 H6            1 RES     
   27735 H6        -409.6903  -286.7802   553.2109 H6            1 RES     
   27736 H6        -412.0177  -284.8389   553.8235 H6            1 RES     
   27737 H6        -412.0874  -286.3576   552.8736 H6            1 RES     
   27738 H6        -411.4363  -287.6847   554.8993 H6            1 RES     
   27739 H6        -411.4222  -286.1642   555.8843 H6            1 RES     
   27740 H6        -412.9506  -286.7364   555.1473 H6            1 RES     
   27741 C0        -390.8772  -286.0505   564.1567 C0            1 RES     
   27742 C0        -392.3730  -285.1457   564.7612 C0            1 RES     
   27743 C0        -393.4122  -286.0541   564.9178 C0            1 RES     
   27744 S1        -394.9723  -285.3792   565.1672 S1            1 RES     
   27745 C0        -394.6840  -283.7451   565.1242 C0            1 RES     
   27746 C0        -393.1425  -283.7526   564.9156 C0            1 RES     
   27747 C0        -393.1292  -287.3371   564.2731 C0            1 RES     
   27748 C0        -392.0055  -286.8089   563.3963 C0            1 RES     
   27749 C0        -392.4665  -286.4600   562.1644 C0            1 RES     
   27750 C0        -393.7896  -286.8058   561.9001 C0            1 RES     
   27751 S1        -394.5731  -287.7175   563.2021 S1            1 RES     
   27752 H2        -392.6747  -282.7895   564.7500 H2            1 RES     
   27753 H2        -391.9460  -285.7858   561.5041 H2            1 RES     
   27754 N3        -398.5849  -282.8876   565.0999 N3            1 RES     
   27755 C0        -397.3752  -283.4634   565.0262 C0            1 RES     
   27756 C0        -396.0805  -282.7923   565.2395 C0            1 RES     
   27757 C0        -396.3476  -281.3694   565.5368 C0            1 RES     
   27758 N3        -395.3895  -280.4210   565.7853 N3            1 RES     
   27759 S1        -396.2699  -279.0383   566.0825 S1            1 RES     
   27760 N3        -397.8396  -279.5196   565.8972 N3            1 RES     
   27761 C0        -397.7036  -280.8192   565.6012 C0            1 RES     
   27762 C0        -398.8270  -281.5770   565.3778 C0            1 RES     
   27763 H4        -397.4191  -284.5003   564.7770 H4            1 RES     
   27764 C5        -377.8066  -300.2760   565.8910 C5            1 RES     
   27765 C5        -378.8266  -299.1053   565.9786 C5            1 RES     
   27766 C5        -378.4587  -297.8782   565.0815 C5            1 RES     
   27767 C5        -379.5710  -296.7456   564.8396 C5            1 RES     
   27768 C5        -379.9580  -295.7093   565.9808 C5            1 RES     
   27769 C5        -381.2651  -294.6811   565.8739 C5            1 RES     
   27770 C5        -381.4003  -293.2955   564.9820 C5            1 RES     
   27771 C5        -382.5766  -291.9988   565.1046 C5            1 RES     
   27772 C5        -384.1204  -291.7286   564.4311 C5            1 RES     
   27773 C5        -385.4763  -290.5468   564.5252 C5            1 RES     
   27774 C5        -385.9767  -288.9982   563.7997 C5            1 RES     
   27775 C5        -384.4784  -288.4541   563.4355 C5            1 RES     
   27776 C5        -383.3474  -288.3433   564.5568 C5            1 RES     
   27777 C5        -381.8467  -288.3266   564.0314 C5            1 RES     
   27778 C5        -380.7391  -288.0354   565.1152 C5            1 RES     
   27779 C5        -381.0036  -286.7692   565.9590 C5            1 RES     
   27780 C5        -381.2392  -285.4877   565.1234 C5            1 RES     
   27781 C5        -380.1651  -284.3996   565.2362 C5            1 RES     
   27782 C5        -378.7712  -284.8301   564.7928 C5            1 RES     
   27783 C5        -387.5676  -287.8369   563.6537 C5            1 RES     
   27784 C0        -389.2400  -287.1686   564.4206 C0            1 RES     
   27785 C5        -388.8826  -287.1698   565.9290 C5            1 RES     
   27786 C5        -388.0458  -288.4292   566.4669 C5            1 RES     
   27787 C5        -388.9284  -289.6345   566.8341 C5            1 RES     
   27788 C5        -389.9566  -290.1131   565.7832 C5            1 RES     
   27789 C5        -389.3947  -290.4182   564.3775 C5            1 RES     
   27790 C5        -390.3365  -291.2005   563.4715 C5            1 RES     
   27791 C5        -391.7038  -290.5299   563.3350 C5            1 RES     
   27792 C5        -392.6883  -291.4601   562.6336 C5            1 RES     
   27793 C5        -394.0995  -290.9124   562.7975 C5            1 RES     
   27794 C5        -395.1598  -291.8737   562.3113 C5            1 RES     
   27795 C5        -387.0714  -288.0122   567.6208 C5            1 RES     
   27796 C5        -385.8325  -288.8938   568.0387 C5            1 RES     
   27797 C5        -385.9674  -290.2057   568.8589 C5            1 RES     
   27798 C5        -386.7730  -290.0056   570.1491 C5            1 RES     
   27799 C5        -386.6649  -291.1870   571.1394 C5            1 RES     
   27800 C5        -387.7575  -291.1235   572.2295 C5            1 RES     
   27801 C5        -387.7958  -289.8347   573.0771 C5            1 RES     
   27802 C5        -386.5857  -289.6163   574.0044 C5            1 RES     
   27803 C5        -386.3868  -290.7032   575.0794 C5            1 RES     
   27804 C5        -387.5806  -290.8473   576.0275 C5            1 RES     
   27805 H6        -377.7247  -300.6723   564.8532 H6            1 RES     
   27806 H6        -376.7907  -299.9849   566.2336 H6            1 RES     
   27807 H6        -378.1377  -301.1318   566.5271 H6            1 RES     
   27808 H6        -379.7970  -299.5263   565.6422 H6            1 RES     
   27809 H6        -378.9129  -298.7971   567.0402 H6            1 RES     
   27810 H6        -377.4877  -297.4549   565.4246 H6            1 RES     
   27811 H6        -378.2603  -298.3312   564.0808 H6            1 RES     
   27812 H6        -380.4815  -297.2887   564.5199 H6            1 RES     
   27813 H6        -379.1993  -296.1434   563.9864 H6            1 RES     
   27814 H6        -379.0307  -295.1557   566.2603 H6            1 RES     
   27815 H6        -380.1625  -296.3775   566.8514 H6            1 RES     
   27816 H6        -381.3366  -294.3295   566.9271 H6            1 RES     
   27817 H6        -382.1365  -295.3301   565.6806 H6            1 RES     
   27818 H6        -380.4391  -292.8114   565.2869 H6            1 RES     
   27819 H6        -381.2412  -293.5695   563.9189 H6            1 RES     
   27820 H6        -381.9509  -291.1750   564.7028 H6            1 RES     
   27821 H6        -382.6086  -291.8277   566.2020 H6            1 RES     
   27822 H6        -383.9563  -291.9135   563.3495 H6            1 RES     
   27823 H6        -384.5993  -292.6445   564.8333 H6            1 RES     
   27824 H6        -385.6122  -290.4509   565.6067 H6            1 RES     
   27825 H6        -386.2855  -291.2060   564.1841 H6            1 RES     
   27826 H6        -386.1530  -289.3926   562.7738 H6            1 RES     
   27827 H6        -384.4857  -287.5514   562.7922 H6            1 RES     
   27828 H6        -384.0341  -289.2471   562.7774 H6            1 RES     
   27829 H6        -383.3781  -289.1987   565.2604 H6            1 RES     
   27830 H6        -383.5585  -287.4230   565.1231 H6            1 RES     
   27831 H6        -381.7378  -287.5928   563.2154 H6            1 RES     
   27832 H6        -381.5737  -289.2981   563.5573 H6            1 RES     
   27833 H6        -379.7401  -287.9429   564.6243 H6            1 RES     
   27834 H6        -380.6562  -288.8928   565.8228 H6            1 RES     
   27835 H6        -381.9210  -286.9851   566.5409 H6            1 RES     
   27836 H6        -380.2187  -286.6057   566.7331 H6            1 RES     
   27837 H6        -381.4129  -285.7087   564.0572 H6            1 RES     
   27838 H6        -382.1791  -285.0261   565.4920 H6            1 RES     
   27839 H6        -380.1161  -284.0383   566.2848 H6            1 RES     
   27840 H6        -380.4907  -283.5526   564.5921 H6            1 RES     
   27841 H6        -378.7823  -285.1966   563.7456 H6            1 RES     
   27842 H6        -378.0942  -283.9500   564.8547 H6            1 RES     
   27843 H6        -378.3742  -285.6199   565.4630 H6            1 RES     
   27844 H6        -387.9596  -288.1902   562.6727 H6            1 RES     
   27845 H6        -387.0819  -286.8959   563.3190 H6            1 RES     
   27846 H6        -388.2704  -286.2525   566.0243 H6            1 RES     
   27847 H6        -389.8037  -287.0428   566.5311 H6            1 RES     
   27848 H6        -387.3533  -288.7966   565.7329 H6            1 RES     
   27849 H6        -388.2611  -290.4845   567.0614 H6            1 RES     
   27850 H6        -389.4952  -289.3870   567.7515 H6            1 RES     
   27851 H6        -390.4067  -291.0402   566.1952 H6            1 RES     
   27852 H6        -390.7526  -289.3434   565.7017 H6            1 RES     
   27853 H6        -389.2370  -289.4982   563.8502 H6            1 RES     
   27854 H6        -388.4469  -290.9752   564.4512 H6            1 RES     
   27855 H6        -389.8757  -291.3088   562.4621 H6            1 RES     
   27856 H6        -390.4534  -292.2073   563.9188 H6            1 RES     
   27857 H6        -392.1059  -290.3598   564.3515 H6            1 RES     
   27858 H6        -391.6280  -289.5473   562.8154 H6            1 RES     
   27859 H6        -392.4235  -291.5817   561.5599 H6            1 RES     
   27860 H6        -392.6485  -292.4488   563.1365 H6            1 RES     
   27861 H6        -394.1752  -289.9887   562.2083 H6            1 RES     
   27862 H6        -394.2968  -290.7155   563.8783 H6            1 RES     
   27863 H6        -395.0427  -292.0410   561.2225 H6            1 RES     
   27864 H6        -396.1583  -291.4309   562.5152 H6            1 RES     
   27865 H6        -395.0748  -292.8340   562.8616 H6            1 RES     
   27866 H6        -387.6475  -287.7051   568.5119 H6            1 RES     
   27867 H6        -386.5620  -287.1058   567.2219 H6            1 RES     
   27868 H6        -385.1861  -289.0905   567.1625 H6            1 RES     
   27869 H6        -385.2166  -288.2326   568.6863 H6            1 RES     
   27870 H6        -386.3997  -291.0366   568.2635 H6            1 RES     
   27871 H6        -384.9309  -290.5183   569.1343 H6            1 RES     
   27872 H6        -387.8293  -289.8644   569.8424 H6            1 RES     
   27873 H6        -386.4118  -289.0959   570.6742 H6            1 RES     
   27874 H6        -385.6480  -291.2162   571.5948 H6            1 RES     
   27875 H6        -386.8146  -292.1465   570.5979 H6            1 RES     
   27876 H6        -387.6788  -292.0102   572.8934 H6            1 RES     
   27877 H6        -388.7356  -291.2009   571.7076 H6            1 RES     
   27878 H6        -388.7176  -289.8503   573.6936 H6            1 RES     
   27879 H6        -387.8968  -288.9569   572.4063 H6            1 RES     
   27880 H6        -385.6615  -289.5401   573.3938 H6            1 RES     
   27881 H6        -386.7256  -288.6413   574.5220 H6            1 RES     
   27882 H6        -386.1736  -291.6826   574.6043 H6            1 RES     
   27883 H6        -385.4992  -290.4234   575.6876 H6            1 RES     
   27884 H6        -387.7981  -289.8806   576.5298 H6            1 RES     
   27885 H6        -388.4847  -291.1917   575.4848 H6            1 RES     
   27886 H6        -387.3470  -291.6054   576.8044 H6            1 RES     
   27887 C0        -403.4022  -280.2448   563.3121 C0            1 RES     
   27888 C0        -403.2931  -282.0598   563.6515 C0            1 RES     
   27889 C0        -403.2040  -282.2535   565.0241 C0            1 RES     
   27890 S1        -402.7788  -283.8374   565.5360 S1            1 RES     
   27891 C0        -402.5975  -284.6569   564.1040 C0            1 RES     
   27892 C0        -402.9540  -283.5223   563.1013 C0            1 RES     
   27893 C0        -402.9015  -281.0139   565.7407 C0            1 RES     
   27894 C0        -402.4129  -280.2589   564.5152 C0            1 RES     
   27895 C0        -401.0602  -280.3440   564.3931 C0            1 RES     
   27896 C0        -400.3978  -280.9333   565.4672 C0            1 RES     
   27897 S1        -401.4570  -281.3689   566.8196 S1            1 RES     
   27898 H2        -402.8235  -283.7505   562.0503 H2            1 RES     
   27899 H2        -400.5352  -280.1727   563.4676 H2            1 RES     
   27900 N3        -401.0604  -287.8562   565.9358 N3            1 RES     
   27901 C0        -401.5085  -286.6387   565.5935 C0            1 RES     
   27902 C0        -402.0651  -286.2557   564.2837 C0            1 RES     
   27903 C0        -402.0319  -287.4458   563.4081 C0            1 RES     
   27904 N3        -402.4598  -287.4810   562.1063 N3            1 RES     
   27905 S1        -402.2145  -289.0650   561.6522 S1            1 RES     
   27906 N3        -401.5576  -289.7661   562.9964 N3            1 RES     
   27907 C0        -401.5271  -288.7439   563.8620 C0            1 RES     
   27908 C0        -401.0350  -288.9513   565.1272 C0            1 RES     
   27909 H4        -401.4179  -285.9225   566.3797 H4            1 RES     
   27910 C5        -411.7737  -262.9576   566.0113 C5            1 RES     
   27911 C5        -411.3170  -264.4264   565.7820 C5            1 RES     
   27912 C5        -410.4367  -264.6223   564.5042 C5            1 RES     
   27913 C5        -409.6488  -266.0096   564.3223 C5            1 RES     
   27914 C5        -410.4094  -267.3461   563.9204 C5            1 RES     
   27915 C5        -409.6926  -268.8500   563.9586 C5            1 RES     
   27916 C5        -408.6146  -269.4917   562.8818 C5            1 RES     
   27917 C5        -408.1158  -271.1597   562.6604 C5            1 RES     
   27918 C5        -406.9054  -272.1394   563.3568 C5            1 RES     
   27919 C5        -406.3336  -273.8472   563.3339 C5            1 RES     
   27920 C5        -405.2550  -274.9023   562.3862 C5            1 RES     
   27921 C5        -405.3701  -274.0888   560.9725 C5            1 RES     
   27922 C5        -406.7901  -273.7957   560.3043 C5            1 RES     
   27923 C5        -406.8362  -272.5884   559.2706 C5            1 RES     
   27924 C5        -408.1863  -272.4115   558.4755 C5            1 RES     
   27925 C5        -408.6816  -273.7007   557.7843 C5            1 RES     
   27926 C5        -407.6353  -274.3658   556.8575 C5            1 RES     
   27927 C5        -407.9586  -274.3603   555.3589 C5            1 RES     
   27928 C5        -408.1092  -272.9734   554.7434 C5            1 RES     
   27929 C5        -404.3813  -276.6701   562.4993 C5            1 RES     
   27930 C0        -404.3946  -278.5158   563.1511 C0            1 RES     
   27931 C5        -405.9137  -278.8222   563.1087 C5            1 RES     
   27932 C5        -406.8955  -277.6513   563.5989 C5            1 RES     
   27933 C5        -407.1008  -277.6274   565.1234 C5            1 RES     
   27934 C5        -405.8373  -277.6436   566.0143 C5            1 RES     
   27935 C5        -404.7856  -276.5528   565.7162 C5            1 RES     
   27936 C5        -403.7318  -276.3711   566.8007 C5            1 RES     
   27937 C5        -403.0197  -277.6795   567.1457 C5            1 RES     
   27938 C5        -402.1616  -277.5083   568.3950 C5            1 RES     
   27939 C5        -401.7295  -278.8789   568.8982 C5            1 RES     
   27940 C5        -401.0478  -278.8185   570.2459 C5            1 RES     
   27941 C5        -408.2442  -277.6705   562.8017 C5            1 RES     
   27942 C5        -409.2019  -276.4195   562.7336 C5            1 RES     
   27943 C5        -410.1068  -275.9829   563.9178 C5            1 RES     
   27944 C5        -410.9811  -277.1316   564.4370 C5            1 RES     
   27945 C5        -412.1098  -276.6734   565.3880 C5            1 RES     
   27946 C5        -412.7178  -277.8589   566.1696 C5            1 RES     
   27947 C5        -413.2937  -279.0092   565.3175 C5            1 RES     
   27948 C5        -414.5467  -278.6590   564.4934 C5            1 RES     
   27949 C5        -415.7717  -278.2295   565.3248 C5            1 RES     
   27950 C5        -416.2437  -279.3010   566.3116 C5            1 RES     
   27951 H6        -410.9044  -262.2718   566.1336 H6            1 RES     
   27952 H6        -412.4073  -262.5724   565.1842 H6            1 RES     
   27953 H6        -412.3708  -262.8759   566.9512 H6            1 RES     
   27954 H6        -410.7247  -264.7008   566.6797 H6            1 RES     
   27955 H6        -412.2198  -265.0683   565.7325 H6            1 RES     
   27956 H6        -411.0351  -264.3514   563.6051 H6            1 RES     
   27957 H6        -409.6515  -263.8346   564.5998 H6            1 RES     
   27958 H6        -409.1115  -266.1719   565.2767 H6            1 RES     
   27959 H6        -408.9037  -265.8240   563.5228 H6            1 RES     
   27960 H6        -410.9142  -267.1641   562.9423 H6            1 RES     
   27961 H6        -411.2399  -267.3820   564.6655 H6            1 RES     
   27962 H6        -410.5864  -269.5060   563.8657 H6            1 RES     
   27963 H6        -409.3015  -268.9649   564.9842 H6            1 RES     
   27964 H6        -409.1651  -269.2520   561.9380 H6            1 RES     
   27965 H6        -407.7311  -268.8211   562.8587 H6            1 RES     
   27966 H6        -407.8443  -271.1056   561.5857 H6            1 RES     
   27967 H6        -409.0915  -271.6908   562.6850 H6            1 RES     
   27968 H6        -405.9933  -271.5150   563.2604 H6            1 RES     
   27969 H6        -407.2432  -272.0352   564.4079 H6            1 RES     
   27970 H6        -407.2689  -274.3961   563.4799 H6            1 RES     
   27971 H6        -405.8298  -273.8592   564.3094 H6            1 RES     
   27972 H6        -404.3047  -274.3986   562.6730 H6            1 RES     
   27973 H6        -404.6391  -274.4289   560.2119 H6            1 RES     
   27974 H6        -405.0393  -273.0435   561.2118 H6            1 RES     
   27975 H6        -407.5563  -273.5335   561.0606 H6            1 RES     
   27976 H6        -407.1000  -274.7285   559.8082 H6            1 RES     
   27977 H6        -406.0123  -272.6792   558.5432 H6            1 RES     
   27978 H6        -406.6409  -271.6147   559.7775 H6            1 RES     
   27979 H6        -408.0746  -271.6076   557.7082 H6            1 RES     
   27980 H6        -408.9968  -272.0718   559.1614 H6            1 RES     
   27981 H6        -408.9247  -274.4041   558.6047 H6            1 RES     
   27982 H6        -409.6504  -273.5505   557.2543 H6            1 RES     
   27983 H6        -406.6229  -273.9552   557.0059 H6            1 RES     
   27984 H6        -407.5724  -275.4346   557.1508 H6            1 RES     
   27985 H6        -408.8895  -274.9385   555.1812 H6            1 RES     
   27986 H6        -407.1220  -274.8825   554.8434 H6            1 RES     
   27987 H6        -407.1937  -272.3667   554.9011 H6            1 RES     
   27988 H6        -408.2754  -273.0893   553.6499 H6            1 RES     
   27989 H6        -408.9867  -272.4482   555.1731 H6            1 RES     
   27990 H6        -403.3896  -276.3561   562.8979 H6            1 RES     
   27991 H6        -404.1044  -276.8102   561.4330 H6            1 RES     
   27992 H6        -406.0820  -279.0181   562.0323 H6            1 RES     
   27993 H6        -406.1228  -279.7522   563.6730 H6            1 RES     
   27994 H6        -406.5194  -276.6775   563.3470 H6            1 RES     
   27995 H6        -407.6748  -276.7173   565.3722 H6            1 RES     
   27996 H6        -407.7089  -278.5065   565.4087 H6            1 RES     
   27997 H6        -406.1960  -277.5162   567.0569 H6            1 RES     
   27998 H6        -405.3642  -278.6441   565.9263 H6            1 RES     
   27999 H6        -404.2175  -276.8335   564.8513 H6            1 RES     
   28000 H6        -405.2736  -275.5801   565.5445 H6            1 RES     
   28001 H6        -402.9803  -275.6187   566.4658 H6            1 RES     
   28002 H6        -404.2534  -275.9785   567.6958 H6            1 RES     
   28003 H6        -403.7893  -278.4334   567.3971 H6            1 RES     
   28004 H6        -402.4204  -278.0585   566.2864 H6            1 RES     
   28005 H6        -401.2833  -276.8579   568.1873 H6            1 RES     
   28006 H6        -402.7876  -277.0403   569.1833 H6            1 RES     
   28007 H6        -401.0209  -279.2987   568.1718 H6            1 RES     
   28008 H6        -402.6272  -279.5332   569.0065 H6            1 RES     
   28009 H6        -400.1097  -278.2347   570.1653 H6            1 RES     
   28010 H6        -400.8148  -279.8553   570.5706 H6            1 RES     
   28011 H6        -401.7292  -278.3550   570.9895 H6            1 RES     
   28012 H6        -408.8158  -278.5841   563.0444 H6            1 RES     
   28013 H6        -407.9218  -277.7492   561.7387 H6            1 RES     
   28014 H6        -408.6526  -275.5332   562.3638 H6            1 RES     
   28015 H6        -409.9195  -276.6530   561.9172 H6            1 RES     
   28016 H6        -409.5279  -275.5357   564.7526 H6            1 RES     
   28017 H6        -410.7760  -275.1776   563.5284 H6            1 RES     
   28018 H6        -410.3016  -277.8307   564.9656 H6            1 RES     
   28019 H6        -411.4579  -277.6514   563.5791 H6            1 RES     
   28020 H6        -412.8958  -276.1264   564.8176 H6            1 RES     
   28021 H6        -411.7003  -275.9716   566.1469 H6            1 RES     
   28022 H6        -413.4909  -277.4877   566.8752 H6            1 RES     
   28023 H6        -411.9002  -278.2877   566.7882 H6            1 RES     
   28024 H6        -413.5372  -279.8548   565.9925 H6            1 RES     
   28025 H6        -412.5076  -279.3876   564.6321 H6            1 RES     
   28026 H6        -414.3003  -277.8523   563.7714 H6            1 RES     
   28027 H6        -414.8288  -279.5599   563.9042 H6            1 RES     
   28028 H6        -415.5554  -277.2913   565.8756 H6            1 RES     
   28029 H6        -416.6065  -278.0219   564.6205 H6            1 RES     
   28030 H6        -416.4854  -280.2441   565.7763 H6            1 RES     
   28031 H6        -415.4732  -279.5031   567.0835 H6            1 RES     
   28032 H6        -417.1569  -278.9464   566.8343 H6            1 RES     
   28033 C0        -397.3039  -292.1650   566.7782 C0            1 RES     
   28034 C0        -397.9270  -291.0679   568.1307 C0            1 RES     
   28035 C0        -399.2542  -291.3865   568.3892 C0            1 RES     
   28036 S1        -400.1144  -290.2823   569.3855 S1            1 RES     
   28037 C0        -398.9800  -289.1171   569.7180 C0            1 RES     
   28038 C0        -397.7585  -289.7109   568.9596 C0            1 RES     
   28039 C0        -399.8376  -292.2248   567.3411 C0            1 RES     
   28040 C0        -398.7677  -291.9198   566.3054 C0            1 RES     
   28041 C0        -399.1484  -290.8967   565.4928 C0            1 RES     
   28042 C0        -400.4630  -290.4644   565.6501 C0            1 RES     
   28043 S1        -401.3995  -291.4075   566.8222 S1            1 RES     
   28044 H2        -396.8692  -289.0934   568.9213 H2            1 RES     
   28045 H2        -398.4555  -290.3077   564.9145 H2            1 RES     
   28046 N3        -401.6945  -286.7150   571.3957 N3            1 RES     
   28047 C0        -401.0375  -287.6653   570.7133 C0            1 RES     
   28048 C0        -399.5739  -287.8088   570.6166 C0            1 RES     
   28049 C0        -398.9556  -286.7141   571.3935 C0            1 RES     
   28050 N3        -397.6077  -286.5085   571.5338 N3            1 RES     
   28051 S1        -397.5126  -285.1741   572.5267 S1            1 RES     
   28052 N3        -399.0911  -284.7737   572.8056 N3            1 RES     
   28053 C0        -399.7478  -285.7150   572.1146 C0            1 RES     
   28054 C0        -401.1212  -285.7102   572.1135 C0            1 RES     
   28055 H4        -401.6881  -288.3433   570.2071 H4            1 RES     
   28056 C5        -394.2357  -309.7953   559.2967 C5            1 RES     
   28057 C5        -394.4058  -308.4714   560.0947 C5            1 RES     
   28058 C5        -393.5690  -307.2788   559.5260 C5            1 RES     
   28059 C5        -393.8885  -305.7973   560.0567 C5            1 RES     
   28060 C5        -393.4471  -305.3259   561.5090 C5            1 RES     
   28061 C5        -393.9619  -303.8998   562.2006 C5            1 RES     
   28062 C5        -393.4473  -302.3638   561.8696 C5            1 RES     
   28063 C5        -393.6696  -300.8882   562.7932 C5            1 RES     
   28064 C5        -394.8888  -299.6965   562.8519 C5            1 RES     
   28065 C5        -395.3260  -298.2184   563.7836 C5            1 RES     
   28066 C5        -394.9927  -296.4681   563.7825 C5            1 RES     
   28067 C5        -393.5258  -296.5438   563.0641 C5            1 RES     
   28068 C5        -392.3608  -297.4554   563.6647 C5            1 RES     
   28069 C5        -391.2101  -297.8716   562.6493 C5            1 RES     
   28070 C5        -389.9703  -298.6156   563.2782 C5            1 RES     
   28071 C5        -389.3492  -297.8870   564.4900 C5            1 RES     
   28072 C5        -388.9653  -296.4127   564.2155 C5            1 RES     
   28073 C5        -387.4668  -296.0893   564.2340 C5            1 RES     
   28074 C5        -386.6381  -296.8434   563.1998 C5            1 RES     
   28075 C5        -395.6717  -294.7954   564.5839 C5            1 RES     
   28076 C0        -396.5442  -293.8768   566.0760 C0            1 RES     
   28077 C5        -396.0110  -294.7060   567.2724 C5            1 RES     
   28078 C5        -395.9394  -296.2961   567.0678 C5            1 RES     
   28079 C5        -397.2695  -297.0089   567.3670 C5            1 RES     
   28080 C5        -398.5430  -296.4607   566.6828 C5            1 RES     
   28081 C5        -398.4787  -296.3220   565.1461 C5            1 RES     
   28082 C5        -399.8268  -296.1130   564.4687 C5            1 RES     
   28083 C5        -400.5937  -294.9258   565.0522 C5            1 RES     
   28084 C5        -402.0258  -294.9042   564.5278 C5            1 RES     
   28085 C5        -402.8485  -293.9269   565.3563 C5            1 RES     
   28086 C5        -404.3253  -293.9918   565.0407 C5            1 RES     
   28087 C5        -394.7274  -296.9144   567.8447 C5            1 RES     
   28088 C5        -394.1372  -298.3344   567.4954 C5            1 RES     
   28089 C5        -394.8430  -299.6617   567.8851 C5            1 RES     
   28090 C5        -395.1831  -299.7234   569.3798 C5            1 RES     
   28091 C5        -395.5909  -301.1321   569.8672 C5            1 RES     
   28092 C5        -396.2732  -301.0846   571.2522 C5            1 RES     
   28093 C5        -395.4542  -300.4399   572.3901 C5            1 RES     
   28094 C5        -394.1961  -301.2163   572.8218 C5            1 RES     
   28095 C5        -394.4637  -302.6290   573.3778 C5            1 RES     
   28096 C5        -395.3666  -302.6355   574.6145 C5            1 RES     
   28097 H6        -394.5549  -309.6791   558.2358 H6            1 RES     
   28098 H6        -393.1897  -310.1694   559.3065 H6            1 RES     
   28099 H6        -394.8785  -310.5987   559.7302 H6            1 RES     
   28100 H6        -395.4857  -308.2214   560.0356 H6            1 RES     
   28101 H6        -394.1352  -308.6649   561.1524 H6            1 RES     
   28102 H6        -392.4863  -307.5302   559.5915 H6            1 RES     
   28103 H6        -393.8186  -307.2747   558.4380 H6            1 RES     
   28104 H6        -394.9844  -305.6764   559.9544 H6            1 RES     
   28105 H6        -393.3879  -305.1129   559.3427 H6            1 RES     
   28106 H6        -392.3381  -305.4283   561.5727 H6            1 RES     
   28107 H6        -393.8448  -306.1433   562.1570 H6            1 RES     
   28108 H6        -393.6565  -304.0623   563.2580 H6            1 RES     
   28109 H6        -395.0644  -303.9348   562.1642 H6            1 RES     
   28110 H6        -392.3450  -302.5465   561.9227 H6            1 RES     
   28111 H6        -393.6397  -302.1752   560.7934 H6            1 RES     
   28112 H6        -392.7664  -300.3439   562.4475 H6            1 RES     
   28113 H6        -393.4249  -301.2285   563.8223 H6            1 RES     
   28114 H6        -395.0306  -299.4323   561.7837 H6            1 RES     
   28115 H6        -395.7230  -300.3775   563.1166 H6            1 RES     
   28116 H6        -395.2104  -298.5643   564.8153 H6            1 RES     
   28117 H6        -396.4070  -298.2231   563.5909 H6            1 RES     
   28118 H6        -395.5197  -296.2416   562.8286 H6            1 RES     
   28119 H6        -393.1346  -295.5512   562.7636 H6            1 RES     
   28120 H6        -393.7079  -297.0656   562.0874 H6            1 RES     
   28121 H6        -392.7472  -298.4212   564.0463 H6            1 RES     
   28122 H6        -391.9323  -296.8965   564.5111 H6            1 RES     
   28123 H6        -390.8453  -296.9852   562.1041 H6            1 RES     
   28124 H6        -391.6017  -298.5386   561.8462 H6            1 RES     
   28125 H6        -389.1818  -298.7665   562.5016 H6            1 RES     
   28126 H6        -390.2643  -299.6349   563.6206 H6            1 RES     
   28127 H6        -390.1248  -297.9086   565.2805 H6            1 RES     
   28128 H6        -388.4933  -298.4502   564.9286 H6            1 RES     
   28129 H6        -389.4006  -296.0344   563.2758 H6            1 RES     
   28130 H6        -389.4179  -295.8017   565.0242 H6            1 RES     
   28131 H6        -387.0584  -296.2953   565.2455 H6            1 RES     
   28132 H6        -387.3665  -294.9991   564.0347 H6            1 RES     
   28133 H6        -387.0182  -296.6586   562.1739 H6            1 RES     
   28134 H6        -385.5874  -296.4839   563.2601 H6            1 RES     
   28135 H6        -386.6442  -297.9320   563.4123 H6            1 RES     
   28136 H6        -396.3450  -294.4616   563.7616 H6            1 RES     
   28137 H6        -394.8071  -294.1278   564.3835 H6            1 RES     
   28138 H6        -394.9873  -294.3038   567.3970 H6            1 RES     
   28139 H6        -396.5964  -294.4678   568.1822 H6            1 RES     
   28140 H6        -395.6951  -296.5621   566.0564 H6            1 RES     
   28141 H6        -397.1591  -298.0672   567.0711 H6            1 RES     
   28142 H6        -397.4480  -296.9735   568.4583 H6            1 RES     
   28143 H6        -399.3584  -297.1676   566.9422 H6            1 RES     
   28144 H6        -398.7795  -295.4731   567.1314 H6            1 RES     
   28145 H6        -397.9245  -295.4402   564.8916 H6            1 RES     
   28146 H6        -398.0015  -297.2073   564.6964 H6            1 RES     
   28147 H6        -399.6723  -295.9522   563.3764 H6            1 RES     
   28148 H6        -400.4086  -297.0448   564.6122 H6            1 RES     
   28149 H6        -400.6648  -295.0674   566.1470 H6            1 RES     
   28150 H6        -400.0704  -293.9625   564.8532 H6            1 RES     
   28151 H6        -402.0491  -294.6387   563.4477 H6            1 RES     
   28152 H6        -402.4607  -295.9159   564.6673 H6            1 RES     
   28153 H6        -402.4928  -292.9117   565.1350 H6            1 RES     
   28154 H6        -402.7272  -294.1667   566.4396 H6            1 RES     
   28155 H6        -404.4970  -293.6899   563.9887 H6            1 RES     
   28156 H6        -404.8626  -293.2963   565.7205 H6            1 RES     
   28157 H6        -404.6999  -295.0223   565.2136 H6            1 RES     
   28158 H6        -394.8848  -296.8166   568.9337 H6            1 RES     
   28159 H6        -393.8729  -296.2557   567.5689 H6            1 RES     
   28160 H6        -393.8588  -298.3837   566.4257 H6            1 RES     
   28161 H6        -393.1638  -298.3789   568.0306 H6            1 RES     
   28162 H6        -395.7521  -299.8538   567.2780 H6            1 RES     
   28163 H6        -394.1256  -300.4855   567.6515 H6            1 RES     
   28164 H6        -396.0167  -299.0106   569.5430 H6            1 RES     
   28165 H6        -394.2997  -299.4074   569.9742 H6            1 RES     
   28166 H6        -394.7035  -301.8064   569.8825 H6            1 RES     
   28167 H6        -396.3318  -301.5731   569.1653 H6            1 RES     
   28168 H6        -396.5940  -302.1054   571.5491 H6            1 RES     
   28169 H6        -397.1986  -300.4809   571.1328 H6            1 RES     
   28170 H6        -396.1168  -300.3190   573.2711 H6            1 RES     
   28171 H6        -395.1577  -299.4130   572.0928 H6            1 RES     
   28172 H6        -393.4970  -301.2936   571.9627 H6            1 RES     
   28173 H6        -393.6869  -300.6247   573.6148 H6            1 RES     
   28174 H6        -394.9086  -303.2753   572.5937 H6            1 RES     
   28175 H6        -393.4862  -303.0733   573.6660 H6            1 RES     
   28176 H6        -394.9277  -302.0092   575.4204 H6            1 RES     
   28177 H6        -396.3828  -302.2633   574.3714 H6            1 RES     
   28178 H6        -395.4714  -303.6748   574.9910 H6            1 RES     
   28179 C0        -404.4508  -281.7332   572.3811 C0            1 RES     
   28180 C0        -405.3133  -283.3467   572.1094 C0            1 RES     
   28181 C0        -405.1278  -284.1471   573.2295 C0            1 RES     
   28182 S1        -405.5764  -285.7969   573.0600 S1            1 RES     
   28183 C0        -406.1121  -285.8792   571.4911 C0            1 RES     
   28184 C0        -405.9352  -284.3918   571.0713 C0            1 RES     
   28185 C0        -404.0787  -283.6331   574.1109 C0            1 RES     
   28186 C0        -403.4577  -282.7158   573.0699 C0            1 RES     
   28187 C0        -402.4197  -283.3252   572.4351 C0            1 RES     
   28188 C0        -402.0330  -284.5545   572.9636 C0            1 RES     
   28189 S1        -402.9226  -285.0273   574.4215 S1            1 RES     
   28190 H2        -406.1237  -284.1601   570.0299 H2            1 RES     
   28191 H2        -402.0444  -283.0123   571.4746 H2            1 RES     
   28192 N3        -406.3364  -289.8656   571.6000 N3            1 RES     
   28193 C0        -406.0823  -288.5666   571.8204 C0            1 RES     
   28194 C0        -406.5347  -287.4402   570.9847 C0            1 RES     
   28195 C0        -407.3077  -287.9932   569.8529 C0            1 RES     
   28196 N3        -407.8855  -287.2530   568.8543 N3            1 RES     
   28197 S1        -408.6359  -288.3940   567.9002 S1            1 RES     
   28198 N3        -408.2724  -289.8280   568.6361 N3            1 RES     
   28199 C0        -407.5421  -289.4295   569.6862 C0            1 RES     
   28200 C0        -407.0523  -290.3709   570.5580 C0            1 RES     
   28201 H4        -405.4853  -288.3979   572.6890 H4            1 RES     
   28202 C5        -401.2730  -265.7626   582.9195 C5            1 RES     
   28203 C5        -401.7510  -267.0071   582.1186 C5            1 RES     
   28204 C5        -401.3454  -266.9806   580.6084 C5            1 RES     
   28205 C5        -401.5001  -268.3289   579.7501 C5            1 RES     
   28206 C5        -402.9266  -268.8560   579.2879 C5            1 RES     
   28207 C5        -403.1686  -270.3617   578.6160 C5            1 RES     
   28208 C5        -402.8165  -270.8593   577.0791 C5            1 RES     
   28209 C5        -403.3692  -272.2812   576.2115 C5            1 RES     
   28210 C5        -402.8120  -273.8888   576.0895 C5            1 RES     
   28211 C5        -403.2953  -275.4622   575.3580 C5            1 RES     
   28212 C5        -403.1512  -276.3397   573.8140 C5            1 RES     
   28213 C5        -403.0210  -275.0265   572.8485 C5            1 RES     
   28214 C5        -404.1255  -273.8738   572.8726 C5            1 RES     
   28215 C5        -403.6597  -272.4531   572.3313 C5            1 RES     
   28216 C5        -404.7918  -271.3656   572.1837 C5            1 RES     
   28217 C5        -406.0218  -271.8444   571.3818 C5            1 RES     
   28218 C5        -405.6846  -272.4130   569.9821 C5            1 RES     
   28219 C5        -406.1858  -271.5998   568.7830 C5            1 RES     
   28220 C5        -405.6388  -270.1789   568.7017 C5            1 RES     
   28221 C5        -403.3994  -278.1535   573.0727 C5            1 RES     
   28222 C0        -404.3288  -279.8757   573.1129 C0            1 RES     
   28223 C5        -405.7461  -279.4248   573.5501 C5            1 RES     
   28224 C5        -405.8203  -278.2965   574.6889 C5            1 RES     
   28225 C5        -405.7302  -278.8648   576.1156 C5            1 RES     
   28226 C5        -404.5644  -279.8315   576.4268 C5            1 RES     
   28227 C5        -403.1486  -279.3133   576.0922 C5            1 RES     
   28228 C5        -402.0133  -280.1191   576.7099 C5            1 RES     
   28229 C5        -402.1016  -281.6067   576.3672 C5            1 RES     
   28230 C5        -401.1056  -282.4075   577.1996 C5            1 RES     
   28231 C5        -401.4317  -283.8902   577.0823 C5            1 RES     
   28232 C5        -400.6253  -284.7432   578.0345 C5            1 RES     
   28233 C5        -407.0603  -277.3615   574.4815 C5            1 RES     
   28234 C5        -407.1600  -275.9333   575.1425 C5            1 RES     
   28235 C5        -407.4672  -275.7196   576.6498 C5            1 RES     
   28236 C5        -408.7346  -276.4596   577.0964 C5            1 RES     
   28237 C5        -409.2500  -276.0266   578.4876 C5            1 RES     
   28238 C5        -410.2783  -277.0294   579.0559 C5            1 RES     
   28239 C5        -411.5229  -277.2929   578.1826 C5            1 RES     
   28240 C5        -412.4844  -276.1003   578.0239 C5            1 RES     
   28241 C5        -413.1134  -275.5940   579.3371 C5            1 RES     
   28242 C5        -413.9346  -276.6592   580.0690 C5            1 RES     
   28243 H6        -400.1633  -265.6663   582.9048 H6            1 RES     
   28244 H6        -401.7096  -264.8149   582.5384 H6            1 RES     
   28245 H6        -401.5646  -265.8529   583.9934 H6            1 RES     
   28246 H6        -401.2753  -267.8815   582.6097 H6            1 RES     
   28247 H6        -402.8520  -267.0866   582.2227 H6            1 RES     
   28248 H6        -401.8282  -266.1056   580.1173 H6            1 RES     
   28249 H6        -400.2522  -266.7560   580.6312 H6            1 RES     
   28250 H6        -400.9982  -269.1170   580.3443 H6            1 RES     
   28251 H6        -400.9169  -268.1581   578.8231 H6            1 RES     
   28252 H6        -403.3948  -268.0566   578.6665 H6            1 RES     
   28253 H6        -403.5053  -268.8484   580.2425 H6            1 RES     
   28254 H6        -404.2771  -270.4369   578.6743 H6            1 RES     
   28255 H6        -402.7484  -271.0798   579.3411 H6            1 RES     
   28256 H6        -403.2846  -270.0098   576.5218 H6            1 RES     
   28257 H6        -401.7270  -270.7165   576.9266 H6            1 RES     
   28258 H6        -403.2899  -271.8812   575.1793 H6            1 RES     
   28259 H6        -404.4566  -272.2751   576.4403 H6            1 RES     
   28260 H6        -401.7364  -273.7622   575.8483 H6            1 RES     
   28261 H6        -402.8615  -274.1256   577.1718 H6            1 RES     
   28262 H6        -404.3400  -275.5418   575.6736 H6            1 RES     
   28263 H6        -402.7341  -276.1275   576.0272 H6            1 RES     
   28264 H6        -402.0499  -276.4942   573.8610 H6            1 RES     
   28265 H6        -402.7344  -275.2763   571.8073 H6            1 RES     
   28266 H6        -402.1331  -274.4643   573.2420 H6            1 RES     
   28267 H6        -404.4846  -273.6673   573.9002 H6            1 RES     
   28268 H6        -404.9752  -274.2435   572.2779 H6            1 RES     
   28269 H6        -403.1538  -272.5645   571.3578 H6            1 RES     
   28270 H6        -402.8792  -272.0058   572.9900 H6            1 RES     
   28271 H6        -404.3780  -270.4474   571.7008 H6            1 RES     
   28272 H6        -405.1555  -271.0478   573.1884 H6            1 RES     
   28273 H6        -406.4787  -272.6499   571.9895 H6            1 RES     
   28274 H6        -406.8148  -271.0639   571.3182 H6            1 RES     
   28275 H6        -404.6062  -272.6060   569.8569 H6            1 RES     
   28276 H6        -406.1786  -273.4041   569.9049 H6            1 RES     
   28277 H6        -407.2951  -271.5603   568.8031 H6            1 RES     
   28278 H6        -405.8747  -272.1472   567.8654 H6            1 RES     
   28279 H6        -404.5295  -270.1804   568.6779 H6            1 RES     
   28280 H6        -406.0141  -269.7098   567.7657 H6            1 RES     
   28281 H6        -405.9955  -269.5730   569.5596 H6            1 RES     
   28282 H6        -402.3515  -278.5240   573.1475 H6            1 RES     
   28283 H6        -403.4219  -277.9110   571.9892 H6            1 RES     
   28284 H6        -406.1647  -279.0248   572.6067 H6            1 RES     
   28285 H6        -406.3419  -280.3081   573.8533 H6            1 RES     
   28286 H6        -405.0137  -277.5917   574.6116 H6            1 RES     
   28287 H6        -405.6546  -278.0126   576.8140 H6            1 RES     
   28288 H6        -406.6684  -279.4082   576.3361 H6            1 RES     
   28289 H6        -404.6196  -280.0370   577.5161 H6            1 RES     
   28290 H6        -404.7467  -280.7811   575.8813 H6            1 RES     
   28291 H6        -402.9790  -279.3985   575.0370 H6            1 RES     
   28292 H6        -403.0356  -278.2633   576.4064 H6            1 RES     
   28293 H6        -401.0363  -279.7157   576.3555 H6            1 RES     
   28294 H6        -402.0782  -279.9806   577.8071 H6            1 RES     
   28295 H6        -403.1078  -281.9661   576.6542 H6            1 RES     
   28296 H6        -401.9600  -281.7848   575.2766 H6            1 RES     
   28297 H6        -400.0611  -282.1962   576.8804 H6            1 RES     
   28298 H6        -401.2310  -282.1166   578.2635 H6            1 RES     
   28299 H6        -401.2021  -284.2075   576.0562 H6            1 RES     
   28300 H6        -402.5102  -284.0518   577.3199 H6            1 RES     
   28301 H6        -399.5485  -284.6667   577.7856 H6            1 RES     
   28302 H6        -400.9576  -285.7984   577.9312 H6            1 RES     
   28303 H6        -400.8056  -284.4115   579.0783 H6            1 RES     
   28304 H6        -407.9946  -277.9290   574.6407 H6            1 RES     
   28305 H6        -407.0111  -277.0928   573.4019 H6            1 RES     
   28306 H6        -406.2794  -275.3208   574.8716 H6            1 RES     
   28307 H6        -408.0064  -275.4355   574.6212 H6            1 RES     
   28308 H6        -406.6126  -275.9978   577.3012 H6            1 RES     
   28309 H6        -407.6297  -274.6234   576.7904 H6            1 RES     
   28310 H6        -408.4824  -277.5395   577.1057 H6            1 RES     
   28311 H6        -409.5498  -276.2728   576.3656 H6            1 RES     
   28312 H6        -409.6802  -274.9997   578.4365 H6            1 RES     
   28313 H6        -408.4049  -275.9979   579.2094 H6            1 RES     
   28314 H6        -410.5908  -276.7123   580.0733 H6            1 RES     
   28315 H6        -409.7490  -277.9997   579.1722 H6            1 RES     
   28316 H6        -412.0822  -278.1443   578.6209 H6            1 RES     
   28317 H6        -411.2006  -277.6303   577.1761 H6            1 RES     
   28318 H6        -411.9518  -275.2594   577.5319 H6            1 RES     
   28319 H6        -413.3086  -276.4159   577.3463 H6            1 RES     
   28320 H6        -412.3284  -275.2031   580.0163 H6            1 RES     
   28321 H6        -413.7931  -274.7505   579.0871 H6            1 RES     
   28322 H6        -414.7406  -277.0495   579.4115 H6            1 RES     
   28323 H6        -413.2935  -277.5001   580.4041 H6            1 RES     
   28324 H6        -414.4001  -276.2119   580.9724 H6            1 RES     
   28325 C0        -405.5215  -295.2572   569.6886 C0            1 RES     
   28326 C0        -405.2054  -294.7280   571.4325 C0            1 RES     
   28327 C0        -406.4245  -294.5051   572.0601 C0            1 RES     
   28328 S1        -406.3552  -293.7074   573.5802 S1            1 RES     
   28329 C0        -404.7295  -293.4481   573.7924 C0            1 RES     
   28330 C0        -404.1828  -294.1133   572.4969 C0            1 RES     
   28331 C0        -407.5338  -294.4349   571.1081 C0            1 RES     
   28332 C0        -406.6569  -294.2094   569.8871 C0            1 RES     
   28333 C0        -406.5312  -292.8827   569.6112 C0            1 RES     
   28334 C0        -407.3400  -292.0351   570.3643 C0            1 RES     
   28335 S1        -408.4396  -292.8775   571.4696 S1            1 RES     
   28336 H2        -403.1203  -294.0078   572.3134 H2            1 RES     
   28337 H2        -405.7315  -292.4727   569.0163 H2            1 RES     
   28338 N3        -405.3461  -291.1227   576.9808 N3            1 RES     
   28339 C0        -405.4456  -291.8503   575.8578 C0            1 RES     
   28340 C0        -404.3453  -292.5656   575.1872 C0            1 RES     
   28341 C0        -403.1090  -292.3308   575.9621 C0            1 RES     
   28342 N3        -401.8716  -292.8282   575.6453 N3            1 RES     
   28343 S1        -400.8951  -292.2715   576.8749 S1            1 RES     
   28344 N3        -401.9176  -291.3862   577.8239 N3            1 RES     
   28345 C0        -403.0866  -291.5227   577.1837 C0            1 RES     
   28346 C0        -404.2057  -290.9119   577.6941 C0            1 RES     
   28347 H4        -406.4340  -291.8663   575.4552 H4            1 RES     
   28348 C5        -413.9878  -307.0274   556.8045 C5            1 RES     
   28349 C5        -413.2649  -306.2751   557.9578 C5            1 RES     
   28350 C5        -412.0116  -305.4624   557.4943 C5            1 RES     
   28351 C5        -411.3663  -304.4026   558.5135 C5            1 RES     
   28352 C5        -410.5116  -304.8757   559.7673 C5            1 RES     
   28353 C5        -410.0306  -303.8443   560.9846 C5            1 RES     
   28354 C5        -408.8121  -302.7273   560.9506 C5            1 RES     
   28355 C5        -408.0276  -301.8896   562.2783 C5            1 RES     
   28356 C5        -408.3533  -300.4485   563.1309 C5            1 RES     
   28357 C5        -407.7417  -299.5175   564.5463 C5            1 RES     
   28358 C5        -406.4995  -298.3001   564.9329 C5            1 RES     
   28359 C5        -405.4586  -298.6877   563.7329 C5            1 RES     
   28360 C5        -404.9160  -300.1796   563.5633 C5            1 RES     
   28361 C5        -404.3698  -300.5609   562.1195 C5            1 RES     
   28362 C5        -403.6688  -301.9678   561.9960 C5            1 RES     
   28363 C5        -402.5633  -302.2129   563.0462 C5            1 RES     
   28364 C5        -401.4766  -301.1114   563.0924 C5            1 RES     
   28365 C5        -400.0705  -301.5294   562.6468 C5            1 RES     
   28366 C5        -399.9775  -302.0235   561.2073 C5            1 RES     
   28367 C5        -405.9984  -297.0528   566.3800 C5            1 RES     
   28368 C0        -405.9625  -296.6147   568.2875 C0            1 RES     
   28369 C5        -405.7948  -298.0282   568.9016 C5            1 RES     
   28370 C5        -406.6505  -299.2081   568.2301 C5            1 RES     
   28371 C5        -408.0839  -299.3091   568.7795 C5            1 RES     
   28372 C5        -408.9299  -298.0154   568.8096 C5            1 RES     
   28373 C5        -409.0469  -297.2527   567.4719 C5            1 RES     
   28374 C5        -410.1407  -296.1934   567.4365 C5            1 RES     
   28375 C5        -410.0155  -295.1887   568.5824 C5            1 RES     
   28376 C5        -411.2572  -294.3063   568.6583 C5            1 RES     
   28377 C5        -411.2546  -293.5496   569.9796 C5            1 RES     
   28378 C5        -412.5473  -292.8076   570.2309 C5            1 RES     
   28379 C5        -405.8788  -300.5705   568.2841 C5            1 RES     
   28380 C5        -406.2398  -301.7827   567.3422 C5            1 RES     
   28381 C5        -407.4895  -302.6787   567.5600 C5            1 RES     
   28382 C5        -407.5617  -303.2408   568.9855 C5            1 RES     
   28383 C5        -408.5974  -304.3753   569.1550 C5            1 RES     
   28384 C5        -408.9063  -304.6524   570.6429 C5            1 RES     
   28385 C5        -407.6975  -305.0174   571.5299 C5            1 RES     
   28386 C5        -407.0312  -306.3700   571.2164 C5            1 RES     
   28387 C5        -407.9435  -307.6000   571.3931 C5            1 RES     
   28388 C5        -408.4862  -307.7559   572.8164 C5            1 RES     
   28389 H6        -414.3542  -306.3243   556.0220 H6            1 RES     
   28390 H6        -413.3393  -307.7852   556.3154 H6            1 RES     
   28391 H6        -414.8885  -307.5623   557.1906 H6            1 RES     
   28392 H6        -414.0178  -305.5771   558.3798 H6            1 RES     
   28393 H6        -412.9816  -307.0155   558.7330 H6            1 RES     
   28394 H6        -411.2562  -306.1657   557.0765 H6            1 RES     
   28395 H6        -412.3877  -304.8655   556.6293 H6            1 RES     
   28396 H6        -412.2107  -303.7789   558.8656 H6            1 RES     
   28397 H6        -410.6926  -303.7730   557.8983 H6            1 RES     
   28398 H6        -409.6523  -305.4736   559.3817 H6            1 RES     
   28399 H6        -411.1856  -305.6251   560.2472 H6            1 RES     
   28400 H6        -409.7017  -304.5758   561.7557 H6            1 RES     
   28401 H6        -410.9563  -303.3684   561.3517 H6            1 RES     
   28402 H6        -408.0045  -303.3802   560.5347 H6            1 RES     
   28403 H6        -409.0372  -302.0170   560.1287 H6            1 RES     
   28404 H6        -407.0436  -301.7107   561.7972 H6            1 RES     
   28405 H6        -407.8513  -302.7203   562.9949 H6            1 RES     
   28406 H6        -408.4941  -299.7052   562.3193 H6            1 RES     
   28407 H6        -409.3697  -300.7285   563.4750 H6            1 RES     
   28408 H6        -407.6736  -300.2967   565.3115 H6            1 RES     
   28409 H6        -408.6581  -298.9581   564.7764 H6            1 RES     
   28410 H6        -406.9574  -297.4668   564.3541 H6            1 RES     
   28411 H6        -404.6371  -297.9533   563.6128 H6            1 RES     
   28412 H6        -406.0532  -298.5798   562.7873 H6            1 RES     
   28413 H6        -405.7058  -300.9313   563.7609 H6            1 RES     
   28414 H6        -404.1206  -300.3095   564.3134 H6            1 RES     
   28415 H6        -403.6680  -299.7888   561.7625 H6            1 RES     
   28416 H6        -405.1882  -300.5508   561.3622 H6            1 RES     
   28417 H6        -403.2330  -302.0885   560.9746 H6            1 RES     
   28418 H6        -404.4190  -302.7845   562.1091 H6            1 RES     
   28419 H6        -403.0820  -302.2385   564.0246 H6            1 RES     
   28420 H6        -402.1062  -303.2248   562.9503 H6            1 RES     
   28421 H6        -401.7732  -300.2066   562.5364 H6            1 RES     
   28422 H6        -401.3779  -300.7948   564.1518 H6            1 RES     
   28423 H6        -399.6890  -302.3199   563.3264 H6            1 RES     
   28424 H6        -399.4163  -300.6355   562.7524 H6            1 RES     
   28425 H6        -400.3501  -301.2556   560.4983 H6            1 RES     
   28426 H6        -398.9105  -302.2342   560.9753 H6            1 RES     
   28427 H6        -400.5518  -302.9637   561.0788 H6            1 RES     
   28428 H6        -406.4951  -296.1298   566.0029 H6            1 RES     
   28429 H6        -404.9544  -296.8252   566.0774 H6            1 RES     
   28430 H6        -404.7158  -298.2222   568.7488 H6            1 RES     
   28431 H6        -405.9949  -297.9883   569.9904 H6            1 RES     
   28432 H6        -406.7606  -299.0738   567.1703 H6            1 RES     
   28433 H6        -408.6278  -300.0512   568.1686 H6            1 RES     
   28434 H6        -408.0351  -299.6878   569.8179 H6            1 RES     
   28435 H6        -409.9461  -298.3215   569.1344 H6            1 RES     
   28436 H6        -408.5037  -297.3406   569.5813 H6            1 RES     
   28437 H6        -408.1463  -296.6971   567.2994 H6            1 RES     
   28438 H6        -409.2200  -297.9536   566.6396 H6            1 RES     
   28439 H6        -410.1007  -295.6508   566.4634 H6            1 RES     
   28440 H6        -411.1094  -296.7264   567.5068 H6            1 RES     
   28441 H6        -409.9764  -295.7543   569.5324 H6            1 RES     
   28442 H6        -409.0861  -294.5806   568.4942 H6            1 RES     
   28443 H6        -411.3023  -293.6091   567.7927 H6            1 RES     
   28444 H6        -412.1508  -294.9647   568.6473 H6            1 RES     
   28445 H6        -410.4369  -292.8170   569.9491 H6            1 RES     
   28446 H6        -411.1147  -294.2715   570.8192 H6            1 RES     
   28447 H6        -412.6889  -292.0289   569.4557 H6            1 RES     
   28448 H6        -412.4916  -292.3304   571.2328 H6            1 RES     
   28449 H6        -413.3967  -293.5221   570.2213 H6            1 RES     
   28450 H6        -405.7784  -300.9089   569.3309 H6            1 RES     
   28451 H6        -404.8600  -300.3120   567.9162 H6            1 RES     
   28452 H6        -406.2113  -301.4686   566.2817 H6            1 RES     
   28453 H6        -405.3836  -302.4851   567.4394 H6            1 RES     
   28454 H6        -408.4358  -302.1570   567.3065 H6            1 RES     
   28455 H6        -407.3976  -303.5337   566.8470 H6            1 RES     
   28456 H6        -407.8213  -302.3896   569.6472 H6            1 RES     
   28457 H6        -406.5698  -303.6489   569.2737 H6            1 RES     
   28458 H6        -408.2440  -305.2994   568.6419 H6            1 RES     
   28459 H6        -409.5596  -304.0797   568.6827 H6            1 RES     
   28460 H6        -409.6865  -305.4383   570.7254 H6            1 RES     
   28461 H6        -409.3466  -303.7202   571.0577 H6            1 RES     
   28462 H6        -408.0304  -305.0221   572.5878 H6            1 RES     
   28463 H6        -406.9338  -304.2159   571.4579 H6            1 RES     
   28464 H6        -406.6408  -306.3573   570.1771 H6            1 RES     
   28465 H6        -406.1601  -306.4863   571.8990 H6            1 RES     
   28466 H6        -408.7909  -307.5587   570.6784 H6            1 RES     
   28467 H6        -407.3453  -308.5060   571.1542 H6            1 RES     
   28468 H6        -407.6514  -307.8198   573.5467 H6            1 RES     
   28469 H6        -409.1490  -306.9090   573.0882 H6            1 RES     
   28470 H6        -409.0875  -308.6869   572.8835 H6            1 RES     
   28471 C0        -404.6778  -286.4607   580.3284 C0            1 RES     
   28472 C0        -406.3202  -287.2166   579.9378 C0            1 RES     
   28473 C0        -406.4326  -288.4202   580.6222 C0            1 RES     
   28474 S1        -407.7407  -289.4325   580.1574 S1            1 RES     
   28475 C0        -408.4755  -288.5627   578.9496 C0            1 RES     
   28476 C0        -407.5739  -287.2951   578.9485 C0            1 RES     
   28477 C0        -405.1495  -288.8746   581.1596 C0            1 RES     
   28478 C0        -404.3008  -287.9713   580.2796 C0            1 RES     
   28479 C0        -403.8927  -288.6226   579.1566 C0            1 RES     
   28480 C0        -404.1735  -289.9863   579.1197 C0            1 RES     
   28481 S1        -404.9284  -290.6099   580.5968 S1            1 RES     
   28482 H2        -407.7663  -286.5684   578.1683 H2            1 RES     
   28483 H2        -403.5668  -288.1176   578.2621 H2            1 RES     
   28484 N3        -410.8508  -291.6189   577.9642 N3            1 RES     
   28485 C0        -409.8879  -290.8167   578.4436 C0            1 RES     
   28486 C0        -409.7670  -289.3675   578.2041 C0            1 RES     
   28487 C0        -410.8864  -288.9541   577.3321 C0            1 RES     
   28488 N3        -411.1082  -287.6782   576.8828 N3            1 RES     
   28489 S1        -412.5065  -287.8120   575.9873 S1            1 RES     
   28490 N3        -412.8865  -289.4172   576.0819 N3            1 RES     
   28491 C0        -411.9007  -289.8959   576.8526 C0            1 RES     
   28492 C0        -411.8827  -291.2334   577.1640 C0            1 RES     
   28493 H4        -409.1675  -291.3349   579.0366 H4            1 RES     
   28494 C5        -391.5400  -280.1013   593.1022 C5            1 RES     
   28495 C5        -392.7486  -280.5041   592.2103 C5            1 RES     
   28496 C5        -392.6449  -279.9914   590.7364 C5            1 RES     
   28497 C5        -393.6562  -280.5925   589.6435 C5            1 RES     
   28498 C5        -395.1875  -280.1678   589.6119 C5            1 RES     
   28499 C5        -396.3276  -280.9357   588.6697 C5            1 RES     
   28500 C5        -396.5623  -280.7960   587.0390 C5            1 RES     
   28501 C5        -397.9410  -281.2744   586.0642 C5            1 RES     
   28502 C5        -398.3966  -282.7192   585.2800 C5            1 RES     
   28503 C5        -399.7807  -283.4068   584.3551 C5            1 RES     
   28504 C5        -400.3970  -283.4681   582.6845 C5            1 RES     
   28505 C5        -399.7176  -282.0731   582.1689 C5            1 RES     
   28506 C5        -399.9769  -280.6977   582.9370 C5            1 RES     
   28507 C5        -398.8958  -279.5556   582.7021 C5            1 RES     
   28508 C5        -399.2413  -278.1424   583.3101 C5            1 RES     
   28509 C5        -400.6398  -277.6159   582.9202 C5            1 RES     
   28510 C5        -400.9041  -277.5859   581.3953 C5            1 RES     
   28511 C5        -401.0551  -276.1978   580.7622 C5            1 RES     
   28512 C5        -399.8337  -275.2958   580.9026 C5            1 RES     
   28513 C5        -401.7239  -284.4427   581.5934 C5            1 RES     
   28514 C0        -403.4312  -285.3923   581.4707 C0            1 RES     
   28515 C5        -404.2687  -284.6092   582.5140 C5            1 RES     
   28516 C5        -403.5213  -284.2032   583.8749 C5            1 RES     
   28517 C5        -403.5339  -285.3200   584.9329 C5            1 RES     
   28518 C5        -403.0676  -286.7266   584.4918 C5            1 RES     
   28519 C5        -401.6778  -286.7994   583.8226 C5            1 RES     
   28520 C5        -401.0981  -288.2033   583.7099 C5            1 RES     
   28521 C5        -402.0498  -289.1714   583.0061 C5            1 RES     
   28522 C5        -401.5467  -290.6053   583.1359 C5            1 RES     
   28523 C5        -402.6536  -291.5647   582.7203 C5            1 RES     
   28524 C5        -402.3152  -293.0089   583.0109 C5            1 RES     
   28525 C5        -404.0491  -282.8347   584.4258 C5            1 RES     
   28526 C5        -403.2328  -281.9714   585.4627 C5            1 RES     
   28527 C5        -403.1235  -282.3391   586.9676 C5            1 RES     
   28528 C5        -404.4972  -282.5545   587.6157 C5            1 RES     
   28529 C5        -404.4550  -282.6078   589.1596 C5            1 RES     
   28530 C5        -405.7595  -283.1878   589.7494 C5            1 RES     
   28531 C5        -407.0621  -282.4552   589.3650 C5            1 RES     
   28532 C5        -407.2118  -281.0306   589.9305 C5            1 RES     
   28533 C5        -407.2344  -280.9418   591.4694 C5            1 RES     
   28534 C5        -408.3781  -281.7346   592.1082 C5            1 RES     
   28535 H6        -390.5827  -280.5099   592.7053 H6            1 RES     
   28536 H6        -391.4324  -279.0005   593.2054 H6            1 RES     
   28537 H6        -391.6560  -280.5202   594.1306 H6            1 RES     
   28538 H6        -392.7660  -281.6140   592.2109 H6            1 RES     
   28539 H6        -393.6752  -280.1261   592.6876 H6            1 RES     
   28540 H6        -392.6329  -278.8780   590.7385 H6            1 RES     
   28541 H6        -391.6239  -280.3093   590.4162 H6            1 RES     
   28542 H6        -393.5878  -281.6924   589.7505 H6            1 RES     
   28543 H6        -393.2339  -280.3048   588.6598 H6            1 RES     
   28544 H6        -395.2265  -279.0618   589.4716 H6            1 RES     
   28545 H6        -395.5029  -280.3305   590.6703 H6            1 RES     
   28546 H6        -397.2653  -280.5307   589.1107 H6            1 RES     
   28547 H6        -396.2662  -282.0032   588.9428 H6            1 RES     
   28548 H6        -396.5631  -279.6795   586.9699 H6            1 RES     
   28549 H6        -395.6178  -281.0982   586.5417 H6            1 RES     
   28550 H6        -397.8200  -280.5390   585.2419 H6            1 RES     
   28551 H6        -398.7890  -280.8911   586.6713 H6            1 RES     
   28552 H6        -397.4866  -282.9883   584.7050 H6            1 RES     
   28553 H6        -398.3947  -283.3629   586.1831 H6            1 RES     
   28554 H6        -400.6275  -283.1478   584.9980 H6            1 RES     
   28555 H6        -399.5838  -284.4707   584.5421 H6            1 RES     
   28556 H6        -399.5756  -284.0959   582.2718 H6            1 RES     
   28557 H6        -399.7890  -281.9316   581.0718 H6            1 RES     
   28558 H6        -398.6177  -282.2020   582.3502 H6            1 RES     
   28559 H6        -399.9909  -280.8349   584.0363 H6            1 RES     
   28560 H6        -400.9711  -280.3461   582.6204 H6            1 RES     
   28561 H6        -398.7004  -279.4331   581.6236 H6            1 RES     
   28562 H6        -397.9047  -279.8444   583.1235 H6            1 RES     
   28563 H6        -398.4718  -277.3949   582.9991 H6            1 RES     
   28564 H6        -399.2011  -278.1806   584.4235 H6            1 RES     
   28565 H6        -401.3620  -278.3120   583.3902 H6            1 RES     
   28566 H6        -400.8651  -276.6291   583.3867 H6            1 RES     
   28567 H6        -400.1505  -278.1569   580.8281 H6            1 RES     
   28568 H6        -401.8693  -278.1058   581.2211 H6            1 RES     
   28569 H6        -401.9359  -275.6860   581.2034 H6            1 RES     
   28570 H6        -401.2515  -276.3539   579.6780 H6            1 RES     
   28571 H6        -398.9324  -275.7764   580.4693 H6            1 RES     
   28572 H6        -400.0304  -274.3485   580.3541 H6            1 RES     
   28573 H6        -399.6516  -275.0474   581.9681 H6            1 RES     
   28574 H6        -401.0615  -285.2275   581.1619 H6            1 RES     
   28575 H6        -401.7817  -283.7622   580.7176 H6            1 RES     
   28576 H6        -404.5402  -283.6933   581.9550 H6            1 RES     
   28577 H6        -405.1962  -285.1693   582.7445 H6            1 RES     
   28578 H6        -402.4842  -283.9759   583.7133 H6            1 RES     
   28579 H6        -402.8878  -284.9996   585.7693 H6            1 RES     
   28580 H6        -404.5660  -285.4271   585.3168 H6            1 RES     
   28581 H6        -403.0519  -287.3466   585.4123 H6            1 RES     
   28582 H6        -403.8304  -287.1437   583.8013 H6            1 RES     
   28583 H6        -401.7557  -286.4717   582.8047 H6            1 RES     
   28584 H6        -400.9531  -286.1706   584.3642 H6            1 RES     
   28585 H6        -400.1334  -288.1630   583.1526 H6            1 RES     
   28586 H6        -400.8984  -288.5544   584.7415 H6            1 RES     
   28587 H6        -403.0247  -289.1347   583.5276 H6            1 RES     
   28588 H6        -402.2078  -288.8880   581.9402 H6            1 RES     
   28589 H6        -400.6277  -290.7602   582.5284 H6            1 RES     
   28590 H6        -401.3172  -290.7961   584.2051 H6            1 RES     
   28591 H6        -402.8066  -291.4574   581.6381 H6            1 RES     
   28592 H6        -403.5859  -291.3200   583.2830 H6            1 RES     
   28593 H6        -401.4332  -293.3142   582.4140 H6            1 RES     
   28594 H6        -403.1880  -293.6386   582.7350 H6            1 RES     
   28595 H6        -402.1112  -293.1347   584.0947 H6            1 RES     
   28596 H6        -405.1011  -282.9351   584.7473 H6            1 RES     
   28597 H6        -404.0330  -282.1672   583.5345 H6            1 RES     
   28598 H6        -402.2175  -281.7625   585.0759 H6            1 RES     
   28599 H6        -403.7318  -280.9779   585.4630 H6            1 RES     
   28600 H6        -402.4753  -283.2229   587.1431 H6            1 RES     
   28601 H6        -402.6261  -281.4755   587.4722 H6            1 RES     
   28602 H6        -404.8883  -283.5117   587.2147 H6            1 RES     
   28603 H6        -405.1766  -281.7241   587.3289 H6            1 RES     
   28604 H6        -404.2453  -281.5947   589.5744 H6            1 RES     
   28605 H6        -403.6331  -283.2795   589.4904 H6            1 RES     
   28606 H6        -405.6758  -283.2547   590.8547 H6            1 RES     
   28607 H6        -405.8464  -284.2294   589.3718 H6            1 RES     
   28608 H6        -407.9206  -283.0666   589.7102 H6            1 RES     
   28609 H6        -407.1473  -282.4132   588.2596 H6            1 RES     
   28610 H6        -406.3896  -280.3918   589.5448 H6            1 RES     
   28611 H6        -408.1686  -280.6113   589.5472 H6            1 RES     
   28612 H6        -406.2676  -281.2858   591.8907 H6            1 RES     
   28613 H6        -407.3620  -279.8731   591.7479 H6            1 RES     
   28614 H6        -409.3581  -281.3906   591.7139 H6            1 RES     
   28615 H6        -408.2668  -282.8221   591.9198 H6            1 RES     
   28616 H6        -408.3654  -281.5819   593.2079 H6            1 RES     
   28617 C0        -413.4803  -295.3312   574.4017 C0            1 RES     
   28618 C0        -412.6492  -295.8335   575.9759 C0            1 RES     
   28619 C0        -413.4206  -295.4003   577.0468 C0            1 RES     
   28620 S1        -412.6781  -295.4849   578.5939 S1            1 RES     
   28621 C0        -411.1725  -296.0950   578.2530 C0            1 RES     
   28622 C0        -411.3025  -296.2792   576.7138 C0            1 RES     
   28623 C0        -414.4403  -294.4326   576.6402 C0            1 RES     
   28624 C0        -413.7950  -294.1014   575.3044 C0            1 RES     
   28625 C0        -413.0012  -293.0004   575.4022 C0            1 RES     
   28626 C0        -413.0711  -292.3173   576.6139 C0            1 RES     
   28627 S1        -414.2589  -292.9794   577.7502 S1            1 RES     
   28628 H2        -410.4056  -296.5846   576.1884 H2            1 RES     
   28629 H2        -412.2162  -292.7696   574.7007 H2            1 RES     
   28630 N3        -409.8759  -295.4276   581.9714 N3            1 RES     
   28631 C0        -410.5405  -295.4515   580.8060 C0            1 RES     
   28632 C0        -410.1459  -296.1968   579.5974 C0            1 RES     
   28633 C0        -408.8817  -296.9043   579.8899 C0            1 RES     
   28634 N3        -408.1977  -297.6977   579.0058 N3            1 RES     
   28635 S1        -406.8944  -298.2416   579.8895 S1            1 RES     
   28636 N3        -407.0866  -297.5218   581.3643 N3            1 RES     
   28637 C0        -408.2196  -296.8274   581.1943 C0            1 RES     
   28638 C0        -408.7133  -296.0839   582.2382 C0            1 RES     
   28639 H4        -411.4212  -294.8485   580.8135 H4            1 RES     
   28640 C5        -428.9853  -295.0389   562.7516 C5            1 RES     
   28641 C5        -427.7930  -295.2844   563.7194 C5            1 RES     
   28642 C5        -426.3932  -294.9986   563.0830 C5            1 RES     
   28643 C5        -425.1153  -294.9106   564.0512 C5            1 RES     
   28644 C5        -424.4784  -296.2140   564.7006 C5            1 RES     
   28645 C5        -423.3186  -296.1636   565.8962 C5            1 RES     
   28646 C5        -421.7097  -295.8162   565.7400 C5            1 RES     
   28647 C5        -420.3918  -296.0999   566.8636 C5            1 RES     
   28648 C5        -419.7222  -295.2119   568.1571 C5            1 RES     
   28649 C5        -418.4797  -295.3854   569.4494 C5            1 RES     
   28650 C5        -416.7283  -295.1571   569.6845 C5            1 RES     
   28651 C5        -416.2856  -295.3856   568.1271 C5            1 RES     
   28652 C5        -416.6966  -296.7126   567.3403 C5            1 RES     
   28653 C5        -416.6934  -296.6092   565.7536 C5            1 RES     
   28654 C5        -416.9204  -297.9605   564.9734 C5            1 RES     
   28655 C5        -415.9850  -299.1065   565.4168 C5            1 RES     
   28656 C5        -414.4795  -298.7486   565.3758 C5            1 RES     
   28657 C5        -413.6342  -299.4972   564.3388 C5            1 RES     
   28658 C5        -414.0630  -299.2836   562.8913 C5            1 RES     
   28659 C5        -415.3957  -295.0496   571.1383 C5            1 RES     
   28660 C0        -414.8176  -295.5718   572.9340 C0            1 RES     
   28661 C5        -415.3656  -297.0204   573.0000 C5            1 RES     
   28662 C5        -416.8263  -297.2635   572.3812 C5            1 RES     
   28663 C5        -417.9648  -296.9534   573.3682 C5            1 RES     
   28664 C5        -417.9338  -295.5848   574.0869 C5            1 RES     
   28665 C5        -417.8211  -294.3442   573.1742 C5            1 RES     
   28666 C5        -418.1330  -293.0198   573.8587 C5            1 RES     
   28667 C5        -417.2901  -292.8014   575.1156 C5            1 RES     
   28668 C5        -417.8029  -291.5990   575.9015 C5            1 RES     
   28669 C5        -417.1695  -291.5977   577.2861 C5            1 RES     
   28670 C5        -417.7737  -290.5602   578.2043 C5            1 RES     
   28671 C5        -416.9425  -298.6903   571.7442 C5            1 RES     
   28672 C5        -418.0603  -299.0568   570.6940 C5            1 RES     
   28673 C5        -419.5426  -299.3000   571.0882 C5            1 RES     
   28674 C5        -419.6846  -300.3398   572.2071 C5            1 RES     
   28675 C5        -421.1321  -300.8418   572.4097 C5            1 RES     
   28676 C5        -421.2993  -301.5827   573.7547 C5            1 RES     
   28677 C5        -420.3722  -302.7953   573.9810 C5            1 RES     
   28678 C5        -420.6280  -304.0044   573.0620 C5            1 RES     
   28679 C5        -422.0266  -304.6385   573.1971 C5            1 RES     
   28680 C5        -422.3280  -305.1530   574.6076 C5            1 RES     
   28681 H6        -429.0203  -293.9813   562.4035 H6            1 RES     
   28682 H6        -428.9542  -295.6985   561.8583 H6            1 RES     
   28683 H6        -429.9556  -295.2296   563.2701 H6            1 RES     
   28684 H6        -427.9532  -294.5954   564.5748 H6            1 RES     
   28685 H6        -427.8476  -296.3312   564.0811 H6            1 RES     
   28686 H6        -426.2331  -295.6946   562.2287 H6            1 RES     
   28687 H6        -426.5082  -293.9828   562.6346 H6            1 RES     
   28688 H6        -425.4027  -294.2081   564.8573 H6            1 RES     
   28689 H6        -424.3148  -294.4440   563.4428 H6            1 RES     
   28690 H6        -424.1698  -296.8881   563.8670 H6            1 RES     
   28691 H6        -425.3673  -296.7137   565.1549 H6            1 RES     
   28692 H6        -423.3318  -297.2217   566.2399 H6            1 RES     
   28693 H6        -423.7520  -295.5471   566.7025 H6            1 RES     
   28694 H6        -421.4788  -296.4968   564.8829 H6            1 RES     
   28695 H6        -421.6317  -294.7979   565.3068 H6            1 RES     
   28696 H6        -419.5661  -296.1812   566.1265 H6            1 RES     
   28697 H6        -420.5933  -297.1437   567.1871 H6            1 RES     
   28698 H6        -419.5554  -294.2096   567.7113 H6            1 RES     
   28699 H6        -420.6524  -295.1341   568.7560 H6            1 RES     
   28700 H6        -418.7332  -296.3629   569.8709 H6            1 RES     
   28701 H6        -418.8812  -294.6471   570.1560 H6            1 RES     
   28702 H6        -416.7333  -294.0482   569.5879 H6            1 RES     
   28703 H6        -415.2268  -295.1227   567.9308 H6            1 RES     
   28704 H6        -416.8630  -294.6186   567.5461 H6            1 RES     
   28705 H6        -417.7265  -297.0374   567.5881 H6            1 RES     
   28706 H6        -415.9986  -297.4985   567.6681 H6            1 RES     
   28707 H6        -415.7495  -296.1588   565.4039 H6            1 RES     
   28708 H6        -417.4776  -295.9034   565.3930 H6            1 RES     
   28709 H6        -416.7952  -297.7931   563.8762 H6            1 RES     
   28710 H6        -417.9677  -298.3159   565.1130 H6            1 RES     
   28711 H6        -416.2659  -299.3322   566.4642 H6            1 RES     
   28712 H6        -416.1879  -300.0544   564.8670 H6            1 RES     
   28713 H6        -414.3094  -297.6653   565.2603 H6            1 RES     
   28714 H6        -414.0535  -299.0162   566.3654 H6            1 RES     
   28715 H6        -413.6518  -300.5839   564.5652 H6            1 RES     
   28716 H6        -412.5875  -299.1365   564.4502 H6            1 RES     
   28717 H6        -414.0554  -298.2055   562.6291 H6            1 RES     
   28718 H6        -413.3455  -299.8159   562.2290 H6            1 RES     
   28719 H6        -415.0738  -299.7056   562.7166 H6            1 RES     
   28720 H6        -415.3502  -293.9432   571.2600 H6            1 RES     
   28721 H6        -414.4654  -295.1988   570.5504 H6            1 RES     
   28722 H6        -414.6165  -297.5802   572.4080 H6            1 RES     
   28723 H6        -415.3324  -297.3848   574.0456 H6            1 RES     
   28724 H6        -417.0117  -296.6392   571.5273 H6            1 RES     
   28725 H6        -418.9183  -297.0200   572.8149 H6            1 RES     
   28726 H6        -417.9683  -297.7316   574.1546 H6            1 RES     
   28727 H6        -418.8814  -295.5189   574.6611 H6            1 RES     
   28728 H6        -417.0879  -295.5902   574.8059 H6            1 RES     
   28729 H6        -416.8053  -294.2323   572.8501 H6            1 RES     
   28730 H6        -418.4845  -294.4441   572.3002 H6            1 RES     
   28731 H6        -417.9556  -292.1821   573.1448 H6            1 RES     
   28732 H6        -419.2083  -293.0387   574.1246 H6            1 RES     
   28733 H6        -417.4193  -293.6817   575.7731 H6            1 RES     
   28734 H6        -416.2081  -292.6988   574.8704 H6            1 RES     
   28735 H6        -417.5921  -290.6510   575.3590 H6            1 RES     
   28736 H6        -418.8995  -291.7126   576.0311 H6            1 RES     
   28737 H6        -416.1005  -291.3744   577.1695 H6            1 RES     
   28738 H6        -417.3207  -292.5953   577.7632 H6            1 RES     
   28739 H6        -417.5821  -289.5462   577.8012 H6            1 RES     
   28740 H6        -417.3030  -290.6581   579.2061 H6            1 RES     
   28741 H6        -418.8650  -290.7376   578.3026 H6            1 RES     
   28742 H6        -416.8802  -299.4635   572.5306 H6            1 RES     
   28743 H6        -416.0261  -298.7752   571.1171 H6            1 RES     
   28744 H6        -418.0330  -298.3533   569.8405 H6            1 RES     
   28745 H6        -417.7348  -300.0256   570.2565 H6            1 RES     
   28746 H6        -420.0670  -298.3628   571.3686 H6            1 RES     
   28747 H6        -420.0559  -299.6901   570.1759 H6            1 RES     
   28748 H6        -419.3187  -299.8559   573.1354 H6            1 RES     
   28749 H6        -419.0544  -301.2240   571.9736 H6            1 RES     
   28750 H6        -421.4380  -301.4902   571.5562 H6            1 RES     
   28751 H6        -421.8298  -299.9766   572.4370 H6            1 RES     
   28752 H6        -422.3590  -301.8873   573.8876 H6            1 RES     
   28753 H6        -421.0758  -300.8460   574.5562 H6            1 RES     
   28754 H6        -420.4770  -303.1221   575.0356 H6            1 RES     
   28755 H6        -419.3158  -302.4759   573.8680 H6            1 RES     
   28756 H6        -420.4688  -303.7049   572.0047 H6            1 RES     
   28757 H6        -419.8716  -304.7831   573.3062 H6            1 RES     
   28758 H6        -422.8103  -303.9145   572.8940 H6            1 RES     
   28759 H6        -422.0785  -305.5028   572.4998 H6            1 RES     
   28760 H6        -421.5645  -305.8961   574.9225 H6            1 RES     
   28761 H6        -422.3562  -304.3211   575.3407 H6            1 RES     
   28762 H6        -423.3244  -305.6429   574.6179 H6            1 RES     
   28763 C0        -406.2091  -293.5772   586.0356 C0            1 RES     
   28764 C0        -408.0321  -293.2673   586.0804 C0            1 RES     
   28765 C0        -408.6813  -294.4598   586.3737 C0            1 RES     
   28766 S1        -410.3852  -294.4645   586.1540 S1            1 RES     
   28767 C0        -410.6970  -292.9253   585.6166 C0            1 RES     
   28768 C0        -409.2582  -292.3350   585.6511 C0            1 RES     
   28769 C0        -407.7991  -295.6196   586.2381 C0            1 RES     
   28770 C0        -406.7464  -294.8993   585.4113 C0            1 RES     
   28771 C0        -406.9541  -295.0880   584.0797 C0            1 RES     
   28772 C0        -407.9453  -296.0104   583.7530 C0            1 RES     
   28773 S1        -408.6705  -296.8195   585.1530 S1            1 RES     
   28774 H2        -409.1377  -291.3370   585.2474 H2            1 RES     
   28775 H2        -406.5514  -294.4408   583.3179 H2            1 RES     
   28776 N3        -414.4890  -293.8201   584.7372 N3            1 RES     
   28777 C0        -413.1811  -293.8333   585.0365 C0            1 RES     
   28778 C0        -412.3175  -292.6508   585.2040 C0            1 RES     
   28779 C0        -413.1424  -291.4467   584.9719 C0            1 RES     
   28780 N3        -412.6884  -290.1546   585.0311 N3            1 RES     
   28781 S1        -414.0482  -289.2433   584.7220 S1            1 RES     
   28782 N3        -415.2331  -290.3685   584.4775 N3            1 RES     
   28783 C0        -414.5698  -291.5196   584.6509 C0            1 RES     
   28784 C0        -415.2464  -292.7083   584.5279 C0            1 RES     
   28785 H4        -412.7849  -294.8189   585.1403 H4            1 RES     
   28786 C5        -389.9056  -300.1007   594.2729 C5            1 RES     
   28787 C5        -391.2590  -299.4844   593.8180 C5            1 RES     
   28788 C5        -391.1265  -298.4756   592.6302 C5            1 RES     
   28789 C5        -392.4609  -298.0116   591.8670 C5            1 RES     
   28790 C5        -393.4812  -296.9902   592.5319 C5            1 RES     
   28791 C5        -394.9890  -296.6665   591.9005 C5            1 RES     
   28792 C5        -395.3648  -295.7292   590.5913 C5            1 RES     
   28793 C5        -396.9124  -295.0598   590.1043 C5            1 RES     
   28794 C5        -398.2111  -295.6361   589.1603 C5            1 RES     
   28795 C5        -399.8710  -295.1496   588.6582 C5            1 RES     
   28796 C5        -400.6762  -294.1827   587.3968 C5            1 RES     
   28797 C5        -399.4308  -293.1664   587.0977 C5            1 RES     
   28798 C5        -398.7570  -292.3213   588.2728 C5            1 RES     
   28799 C5        -397.2787  -291.8042   587.9980 C5            1 RES     
   28800 C5        -396.6800  -290.8205   589.0751 C5            1 RES     
   28801 C5        -397.5929  -289.6192   589.4046 C5            1 RES     
   28802 C5        -398.0366  -288.8014   588.1675 C5            1 RES     
   28803 C5        -397.4921  -287.3715   588.0712 C5            1 RES     
   28804 C5        -395.9721  -287.2703   588.0049 C5            1 RES     
   28805 C5        -402.4751  -293.8712   586.6432 C5            1 RES     
   28806 C0        -404.4155  -293.8027   586.8916 C0            1 RES     
   28807 C5        -404.4982  -293.2863   588.3509 C5            1 RES     
   28808 C5        -403.4445  -293.9048   589.3914 C5            1 RES     
   28809 C5        -403.9041  -295.2398   590.0022 C5            1 RES     
   28810 C5        -404.3737  -296.3460   589.0294 C5            1 RES     
   28811 C5        -403.3862  -296.7191   587.9022 C5            1 RES     
   28812 C5        -403.7091  -298.0192   587.1774 C5            1 RES     
   28813 C5        -405.1358  -298.0405   586.6277 C5            1 RES     
   28814 C5        -405.4989  -299.4380   586.1363 C5            1 RES     
   28815 C5        -407.0014  -299.5121   585.9008 C5            1 RES     
   28816 C5        -407.4789  -300.9163   585.6093 C5            1 RES     
   28817 C5        -403.0286  -292.8500   590.4727 C5            1 RES     
   28818 C5        -401.7171  -292.9985   591.3357 C5            1 RES     
   28819 C5        -401.5903  -294.0023   592.5140 C5            1 RES     
   28820 C5        -402.7277  -293.8515   593.5323 C5            1 RES     
   28821 C5        -402.4752  -294.5978   594.8618 C5            1 RES     
   28822 C5        -403.7675  -294.7358   595.6966 C5            1 RES     
   28823 C5        -404.4870  -293.4188   596.0555 C5            1 RES     
   28824 C5        -403.7289  -292.4937   597.0258 C5            1 RES     
   28825 C5        -403.4513  -293.0985   598.4163 C5            1 RES     
   28826 C5        -404.7225  -293.4952   599.1724 C5            1 RES     
   28827 H6        -389.4138  -300.6655   593.4483 H6            1 RES     
   28828 H6        -389.1910  -299.3361   594.6455 H6            1 RES     
   28829 H6        -390.0676  -300.8330   595.1000 H6            1 RES     
   28830 H6        -391.8883  -300.3420   593.5008 H6            1 RES     
   28831 H6        -391.7297  -298.9927   594.6932 H6            1 RES     
   28832 H6        -390.4992  -297.6141   592.9530 H6            1 RES     
   28833 H6        -390.5201  -299.0320   591.8760 H6            1 RES     
   28834 H6        -392.9975  -298.9466   591.6146 H6            1 RES     
   28835 H6        -392.1143  -297.5368   590.9273 H6            1 RES     
   28836 H6        -392.9225  -296.0487   592.7459 H6            1 RES     
   28837 H6        -393.6592  -297.4482   593.5343 H6            1 RES     
   28838 H6        -395.4596  -296.1327   592.7557 H6            1 RES     
   28839 H6        -395.4868  -297.6470   591.8065 H6            1 RES     
   28840 H6        -394.7578  -294.8279   590.8569 H6            1 RES     
   28841 H6        -394.8406  -296.1608   589.7140 H6            1 RES     
   28842 H6        -396.5378  -294.1746   589.5496 H6            1 RES     
   28843 H6        -397.2951  -294.6564   591.0663 H6            1 RES     
   28844 H6        -397.7092  -295.9922   588.2370 H6            1 RES     
   28845 H6        -398.4215  -296.5400   589.7674 H6            1 RES     
   28846 H6        -400.3158  -294.8595   589.6150 H6            1 RES     
   28847 H6        -400.2699  -296.1488   588.4391 H6            1 RES     
   28848 H6        -400.4196  -294.8513   586.5447 H6            1 RES     
   28849 H6        -399.5866  -292.5369   586.1987 H6            1 RES     
   28850 H6        -398.5748  -293.8331   586.8113 H6            1 RES     
   28851 H6        -398.6682  -292.9106   589.2068 H6            1 RES     
   28852 H6        -399.4249  -291.4675   588.4657 H6            1 RES     
   28853 H6        -397.2241  -291.3158   587.0108 H6            1 RES     
   28854 H6        -396.5617  -292.6544   587.9170 H6            1 RES     
   28855 H6        -395.6871  -290.4396   588.7336 H6            1 RES     
   28856 H6        -396.4898  -291.3629   590.0302 H6            1 RES     
   28857 H6        -398.4932  -290.0516   589.8836 H6            1 RES     
   28858 H6        -397.1551  -288.9581   590.1877 H6            1 RES     
   28859 H6        -397.8286  -289.3272   587.2209 H6            1 RES     
   28860 H6        -399.1411  -288.7028   588.2206 H6            1 RES     
   28861 H6        -397.8571  -286.7797   588.9366 H6            1 RES     
   28862 H6        -397.9129  -286.9246   587.1430 H6            1 RES     
   28863 H6        -395.5718  -287.8503   587.1479 H6            1 RES     
   28864 H6        -395.6956  -286.2014   587.8713 H6            1 RES     
   28865 H6        -395.5147  -287.6308   588.9489 H6            1 RES     
   28866 H6        -402.4383  -294.5836   585.7876 H6            1 RES     
   28867 H6        -402.2856  -292.9261   586.0917 H6            1 RES     
   28868 H6        -404.3018  -292.2041   588.2267 H6            1 RES     
   28869 H6        -405.5292  -293.4156   588.7349 H6            1 RES     
   28870 H6        -402.4974  -294.1138   588.9303 H6            1 RES     
   28871 H6        -403.0647  -295.6473   590.5930 H6            1 RES     
   28872 H6        -404.7448  -295.0381   590.6925 H6            1 RES     
   28873 H6        -404.5569  -297.2452   589.6536 H6            1 RES     
   28874 H6        -405.3386  -296.0273   588.5822 H6            1 RES     
   28875 H6        -403.4315  -295.9769   587.1298 H6            1 RES     
   28876 H6        -402.3590  -296.7899   588.2941 H6            1 RES     
   28877 H6        -402.9882  -298.1661   586.3398 H6            1 RES     
   28878 H6        -403.5751  -298.8395   587.9099 H6            1 RES     
   28879 H6        -405.8280  -297.8132   587.4601 H6            1 RES     
   28880 H6        -405.2787  -297.2762   585.8298 H6            1 RES     
   28881 H6        -404.9316  -299.6945   585.2144 H6            1 RES     
   28882 H6        -405.2458  -300.1632   586.9377 H6            1 RES     
   28883 H6        -407.2404  -298.8799   585.0352 H6            1 RES     
   28884 H6        -407.5369  -299.1597   586.8144 H6            1 RES     
   28885 H6        -407.0235  -301.2785   584.6665 H6            1 RES     
   28886 H6        -408.5851  -300.8989   585.5063 H6            1 RES     
   28887 H6        -407.2081  -301.5861   586.4520 H6            1 RES     
   28888 H6        -403.8919  -292.6065   591.1174 H6            1 RES     
   28889 H6        -402.7884  -291.9407   589.8763 H6            1 RES     
   28890 H6        -400.8341  -293.1123   590.6788 H6            1 RES     
   28891 H6        -401.5739  -292.0040   591.8115 H6            1 RES     
   28892 H6        -401.5226  -295.0553   592.1697 H6            1 RES     
   28893 H6        -400.6245  -293.7731   593.0263 H6            1 RES     
   28894 H6        -403.6420  -294.2465   593.0445 H6            1 RES     
   28895 H6        -402.8684  -292.7767   593.7745 H6            1 RES     
   28896 H6        -401.6759  -294.0853   595.4455 H6            1 RES     
   28897 H6        -402.1231  -295.6313   594.6519 H6            1 RES     
   28898 H6        -403.5590  -295.3162   596.6201 H6            1 RES     
   28899 H6        -404.4764  -295.3414   595.0918 H6            1 RES     
   28900 H6        -405.4717  -293.6695   596.4999 H6            1 RES     
   28901 H6        -404.7106  -292.8571   595.1252 H6            1 RES     
   28902 H6        -402.7652  -292.1876   596.5671 H6            1 RES     
   28903 H6        -404.3394  -291.5740   597.1657 H6            1 RES     
   28904 H6        -402.7849  -293.9809   598.3282 H6            1 RES     
   28905 H6        -402.9186  -292.3330   599.0214 H6            1 RES     
   28906 H6        -405.3954  -292.6190   599.2894 H6            1 RES     
   28907 H6        -405.2645  -294.3081   598.6473 H6            1 RES     
   28908 H6        -404.4511  -293.8705   600.1815 H6            1 RES     
   28909 C0        -419.2656  -293.9686   581.4893 C0            1 RES     
   28910 C0        -418.6128  -295.4269   582.4214 C0            1 RES     
   28911 C0        -418.8309  -295.2245   583.7782 C0            1 RES     
   28912 S1        -418.0233  -296.3059   584.8412 S1            1 RES     
   28913 C0        -417.1866  -297.2949   583.8034 C0            1 RES     
   28914 C0        -417.6416  -296.6969   582.4414 C0            1 RES     
   28915 C0        -419.1926  -293.8392   584.0813 C0            1 RES     
   28916 C0        -418.6962  -293.2724   582.7611 C0            1 RES     
   28917 C0        -417.4219  -292.8083   582.8742 C0            1 RES     
   28918 C0        -416.9061  -292.7837   584.1677 C0            1 RES     
   28919 S1        -418.0610  -293.2801   585.4168 S1            1 RES     
   28920 H2        -417.1627  -297.0975   581.5560 H2            1 RES     
   28921 H2        -416.7654  -292.6634   582.0319 H2            1 RES     
   28922 N3        -415.1612  -299.0001   586.7941 N3            1 RES     
   28923 C0        -415.9042  -298.2072   586.0069 C0            1 RES     
   28924 C0        -416.1889  -298.4252   584.5774 C0            1 RES     
   28925 C0        -415.5017  -299.6649   584.1590 C0            1 RES     
   28926 N3        -415.5245  -300.1924   582.8940 N3            1 RES     
   28927 S1        -414.6199  -301.5847   583.0300 S1            1 RES     
   28928 N3        -414.1413  -301.5943   584.6114 N3            1 RES     
   28929 C0        -414.7091  -300.4771   585.0852 C0            1 RES     
   28930 C0        -414.5327  -300.1436   586.4057 C0            1 RES     
   28931 H4        -416.2881  -297.3516   586.5167 H4            1 RES     
   28932 C5        -433.6353  -281.7150   577.0649 C5            1 RES     
   28933 C5        -432.6424  -282.8631   577.4033 C5            1 RES     
   28934 C5        -431.4428  -282.9756   576.4062 C5            1 RES     
   28935 C5        -430.1950  -283.9018   576.8106 C5            1 RES     
   28936 C5        -430.2932  -285.4876   576.7656 C5            1 RES     
   28937 C5        -429.1263  -286.4919   577.4034 C5            1 RES     
   28938 C5        -427.6447  -286.8623   576.7698 C5            1 RES     
   28939 C5        -426.5454  -288.1649   577.1877 C5            1 RES     
   28940 C5        -425.2989  -288.3434   578.3386 C5            1 RES     
   28941 C5        -424.1731  -289.6018   578.9654 C5            1 RES     
   28942 C5        -422.5784  -290.3019   578.5889 C5            1 RES     
   28943 C5        -422.5932  -289.9833   576.9852 C5            1 RES     
   28944 C5        -423.7906  -290.4862   576.0567 C5            1 RES     
   28945 C5        -423.9851  -289.7019   574.6873 C5            1 RES     
   28946 C5        -425.0447  -290.3080   573.6891 C5            1 RES     
   28947 C5        -424.8448  -291.8114   573.3978 C5            1 RES     
   28948 C5        -423.4234  -292.1791   572.9072 C5            1 RES     
   28949 C5        -423.3144  -292.6750   571.4606 C5            1 RES     
   28950 C5        -423.7783  -291.6757   570.4065 C5            1 RES     
   28951 C5        -421.1972  -291.4527   579.4067 C5            1 RES     
   28952 C0        -420.7266  -292.9132   580.6222 C0            1 RES     
   28953 C5        -421.9665  -293.8294   580.4606 C5            1 RES     
   28954 C5        -423.3935  -293.0988   580.3866 C5            1 RES     
   28955 C5        -423.9932  -292.7929   581.7698 C5            1 RES     
   28956 C5        -423.0940  -292.0594   582.7916 C5            1 RES     
   28957 C5        -422.4607  -290.7366   582.3078 C5            1 RES     
   28958 C5        -421.8715  -289.8710   583.4139 C5            1 RES     
   28959 C5        -420.8604  -290.6317   584.2724 C5            1 RES     
   28960 C5        -420.4868  -289.8174   585.5067 C5            1 RES     
   28961 C5        -419.7466  -290.7115   586.4922 C5            1 RES     
   28962 C5        -419.5178  -290.0442   587.8290 C5            1 RES     
   28963 C5        -424.3813  -293.8763   579.4514 C5            1 RES     
   28964 C5        -425.6659  -293.2016   578.8339 C5            1 RES     
   28965 C5        -426.9481  -292.9116   579.6607 C5            1 RES     
   28966 C5        -427.4610  -294.1566   580.3958 C5            1 RES     
   28967 C5        -428.8890  -293.9985   580.9651 C5            1 RES     
   28968 C5        -429.2206  -295.0999   581.9962 C5            1 RES     
   28969 C5        -429.0992  -296.5550   581.4970 C5            1 RES     
   28970 C5        -430.1257  -296.9759   580.4288 C5            1 RES     
   28971 C5        -431.5977  -296.9125   580.8820 C5            1 RES     
   28972 C5        -431.9029  -297.8072   582.0867 C5            1 RES     
   28973 H6        -433.1335  -280.7205   577.0800 H6            1 RES     
   28974 H6        -434.1188  -281.8458   576.0733 H6            1 RES     
   28975 H6        -434.4503  -281.6655   577.8264 H6            1 RES     
   28976 H6        -432.2542  -282.6355   578.4180 H6            1 RES     
   28977 H6        -433.2092  -283.8155   577.4365 H6            1 RES     
   28978 H6        -431.8348  -283.2091   575.3904 H6            1 RES     
   28979 H6        -431.0455  -281.9339   576.3505 H6            1 RES     
   28980 H6        -429.9111  -283.5856   577.8331 H6            1 RES     
   28981 H6        -429.3801  -283.6213   576.1134 H6            1 RES     
   28982 H6        -430.5485  -285.7787   575.7194 H6            1 RES     
   28983 H6        -431.2233  -285.6864   577.3501 H6            1 RES     
   28984 H6        -429.6684  -287.4635   577.4021 H6            1 RES     
   28985 H6        -429.0093  -286.1784   578.4551 H6            1 RES     
   28986 H6        -427.9708  -287.1138   575.7298 H6            1 RES     
   28987 H6        -427.0861  -285.9106   576.6566 H6            1 RES     
   28988 H6        -426.0343  -288.2653   576.2078 H6            1 RES     
   28989 H6        -427.2367  -289.0331   577.2427 H6            1 RES     
   28990 H6        -424.6786  -287.4378   578.1765 H6            1 RES     
   28991 H6        -425.9194  -288.1381   579.2345 H6            1 RES     
   28992 H6        -424.8543  -290.4389   579.1454 H6            1 RES     
   28993 H6        -423.9784  -289.1631   579.9529 H6            1 RES     
   28994 H6        -421.9833  -289.3925   578.8296 H6            1 RES     
   28995 H6        -421.6142  -290.1588   576.4958 H6            1 RES     
   28996 H6        -422.7328  -288.8723   576.9117 H6            1 RES     
   28997 H6        -424.7721  -290.3947   576.5626 H6            1 RES     
   28998 H6        -423.6036  -291.5527   575.8567 H6            1 RES     
   28999 H6        -423.0206  -289.6123   574.1601 H6            1 RES     
   29000 H6        -424.2922  -288.6452   574.8669 H6            1 RES     
   29001 H6        -425.0256  -289.7451   572.7246 H6            1 RES     
   29002 H6        -426.0747  -290.1845   574.0973 H6            1 RES     
   29003 H6        -425.0314  -292.3287   574.3593 H6            1 RES     
   29004 H6        -425.6241  -292.2161   572.7116 H6            1 RES     
   29005 H6        -422.7025  -291.3587   573.0587 H6            1 RES     
   29006 H6        -423.0651  -293.0156   573.5429 H6            1 RES     
   29007 H6        -423.8948  -293.6147   571.3491 H6            1 RES     
   29008 H6        -422.2416  -292.9056   571.2754 H6            1 RES     
   29009 H6        -423.2165  -290.7223   570.4876 H6            1 RES     
   29010 H6        -423.5936  -292.1131   569.4008 H6            1 RES     
   29011 H6        -424.8658  -291.4805   570.5046 H6            1 RES     
   29012 H6        -420.5273  -290.6647   579.8204 H6            1 RES     
   29013 H6        -420.6144  -291.7186   578.4995 H6            1 RES     
   29014 H6        -421.7599  -294.3335   579.4970 H6            1 RES     
   29015 H6        -421.9737  -294.5929   581.2632 H6            1 RES     
   29016 H6        -423.3358  -292.1509   579.8853 H6            1 RES     
   29017 H6        -424.8976  -292.1778   581.6168 H6            1 RES     
   29018 H6        -424.3012  -293.7474   582.2369 H6            1 RES     
   29019 H6        -423.7393  -291.8448   583.6687 H6            1 RES     
   29020 H6        -422.2908  -292.7568   583.1096 H6            1 RES     
   29021 H6        -421.6210  -290.9540   581.6776 H6            1 RES     
   29022 H6        -423.1980  -290.1331   581.7547 H6            1 RES     
   29023 H6        -421.3768  -288.9792   582.9635 H6            1 RES     
   29024 H6        -422.7175  -289.5290   584.0420 H6            1 RES     
   29025 H6        -421.3485  -291.5529   584.6427 H6            1 RES     
   29026 H6        -419.9592  -290.9206   583.6845 H6            1 RES     
   29027 H6        -419.8761  -288.9305   585.2273 H6            1 RES     
   29028 H6        -421.4246  -289.4792   585.9951 H6            1 RES     
   29029 H6        -418.7685  -290.9578   586.0578 H6            1 RES     
   29030 H6        -420.3466  -291.6342   586.6774 H6            1 RES     
   29031 H6        -418.8639  -289.1594   587.6988 H6            1 RES     
   29032 H6        -419.0270  -290.7736   588.5085 H6            1 RES     
   29033 H6        -420.4917  -289.7441   588.2690 H6            1 RES     
   29034 H6        -424.6330  -294.8560   579.8955 H6            1 RES     
   29035 H6        -423.7805  -294.0685   578.5337 H6            1 RES     
   29036 H6        -425.3906  -292.2860   578.2771 H6            1 RES     
   29037 H6        -426.0072  -293.9059   578.0444 H6            1 RES     
   29038 H6        -426.8120  -292.0741   580.3764 H6            1 RES     
   29039 H6        -427.7299  -292.5834   578.9333 H6            1 RES     
   29040 H6        -426.7451  -294.3536   581.2194 H6            1 RES     
   29041 H6        -427.4739  -295.0202   579.6976 H6            1 RES     
   29042 H6        -429.6351  -293.9894   580.1371 H6            1 RES     
   29043 H6        -428.9749  -293.0282   581.5011 H6            1 RES     
   29044 H6        -430.2335  -294.9283   582.4178 H6            1 RES     
   29045 H6        -428.5011  -294.9807   582.8348 H6            1 RES     
   29046 H6        -429.1968  -297.2321   582.3699 H6            1 RES     
   29047 H6        -428.0775  -296.7225   581.0985 H6            1 RES     
   29048 H6        -429.9992  -296.3429   579.5254 H6            1 RES     
   29049 H6        -429.9003  -298.0254   580.1356 H6            1 RES     
   29050 H6        -431.8851  -295.8673   581.1175 H6            1 RES     
   29051 H6        -432.2310  -297.2532   580.0342 H6            1 RES     
   29052 H6        -431.6407  -298.8635   581.8636 H6            1 RES     
   29053 H6        -431.3472  -297.4722   582.9863 H6            1 RES     
   29054 H6        -432.9865  -297.7535   582.3227 H6            1 RES     
   29055 C0        -410.4891  -300.9838   589.5550 C0            1 RES     
   29056 C0        -411.7990  -299.9570   590.3620 C0            1 RES     
   29057 C0        -412.9432  -300.7301   590.5131 C0            1 RES     
   29058 S1        -414.3726  -299.8835   590.9509 S1            1 RES     
   29059 C0        -413.8603  -298.3073   591.0427 C0            1 RES     
   29060 C0        -412.3525  -298.4981   590.7113 C0            1 RES     
   29061 C0        -412.8872  -301.9633   589.7272 C0            1 RES     
   29062 C0        -411.7608  -301.4994   588.8180 C0            1 RES     
   29063 C0        -412.2487  -300.9629   587.6664 C0            1 RES     
   29064 C0        -413.6218  -301.0988   587.4771 C0            1 RES     
   29065 S1        -414.4381  -302.0312   588.7438 S1            1 RES     
   29066 H2        -411.7656  -297.5940   590.6023 H2            1 RES     
   29067 H2        -411.6832  -300.2977   587.0346 H2            1 RES     
   29068 N3        -417.5943  -296.9391   591.4144 N3            1 RES     
   29069 C0        -416.4854  -297.6601   591.1887 C0            1 RES     
   29070 C0        -415.0978  -297.1943   591.3611 C0            1 RES     
   29071 C0        -415.1413  -295.7884   591.8147 C0            1 RES     
   29072 N3        -414.0449  -295.0083   592.0757 N3            1 RES     
   29073 S1        -414.6999  -293.5600   592.5745 S1            1 RES     
   29074 N3        -416.3306  -293.8050   592.4703 N3            1 RES     
   29075 C0        -416.3990  -295.0721   592.0404 C0            1 RES     
   29076 C0        -417.6303  -295.6451   591.8360 C0            1 RES     
   29077 H4        -416.6915  -298.6493   590.8450 H4            1 RES     
   29078 C5        -399.4684  -316.9296   588.8546 C5            1 RES     
   29079 C5        -400.3052  -315.6493   589.1363 C5            1 RES     
   29080 C5        -399.8282  -314.3937   588.3350 C5            1 RES     
   29081 C5        -400.7833  -313.1035   588.2935 C5            1 RES     
   29082 C5        -400.9439  -312.1524   589.5567 C5            1 RES     
   29083 C5        -402.0971  -310.9535   589.6548 C5            1 RES     
   29084 C5        -402.0945  -309.4751   588.9144 C5            1 RES     
   29085 C5        -403.0654  -308.0536   589.2554 C5            1 RES     
   29086 C5        -404.5970  -307.5095   588.7373 C5            1 RES     
   29087 C5        -405.7635  -306.1742   589.0533 C5            1 RES     
   29088 C5        -406.0875  -304.5042   588.5231 C5            1 RES     
   29089 C5        -404.5550  -304.1293   588.0940 C5            1 RES     
   29090 C5        -403.3478  -304.2905   589.1263 C5            1 RES     
   29091 C5        -401.8979  -304.4184   588.4862 C5            1 RES     
   29092 C5        -400.6909  -304.3948   589.5006 C5            1 RES     
   29093 C5        -400.7178  -303.2018   590.4810 C5            1 RES     
   29094 C5        -400.8253  -301.8186   589.7945 C5            1 RES     
   29095 C5        -399.6034  -300.9019   589.9251 C5            1 RES     
   29096 C5        -398.3166  -301.4649   589.3318 C5            1 RES     
   29097 C5        -407.5050  -303.1321   588.6180 C5            1 RES     
   29098 C0        -409.0120  -302.3321   589.5775 C0            1 RES     
   29099 C5        -408.5592  -302.5417   591.0452 C5            1 RES     
   29100 C5        -407.8745  -303.9516   591.3902 C5            1 RES     
   29101 C5        -408.8920  -305.0605   591.7091 C5            1 RES     
   29102 C5        -410.0447  -305.2829   590.7030 C5            1 RES     
   29103 C5        -409.6257  -305.5088   589.2338 C5            1 RES     
   29104 C5        -410.7263  -306.0573   588.3351 C5            1 RES     
   29105 C5        -411.9915  -305.1995   588.3742 C5            1 RES     
   29106 C5        -413.1415  -305.9099   587.6676 C5            1 RES     
   29107 C5        -414.4474  -305.1993   587.9964 C5            1 RES     
   29108 C5        -415.6625  -305.9532   587.5065 C5            1 RES     
   29109 C5        -406.7768  -303.7938   592.4969 C5            1 RES     
   29110 C5        -405.6496  -304.8723   592.7271 C5            1 RES     
   29111 C5        -405.9135  -306.2343   593.4252 C5            1 RES     
   29112 C5        -406.5955  -306.0671   594.7891 C5            1 RES     
   29113 C5        -406.5897  -307.3511   595.6490 C5            1 RES     
   29114 C5        -407.5878  -307.2589   596.8243 C5            1 RES     
   29115 C5        -407.3879  -306.0742   597.7926 C5            1 RES     
   29116 C5        -406.1003  -306.1194   598.6365 C5            1 RES     
   29117 C5        -405.9859  -307.3313   599.5822 C5            1 RES     
   29118 C5        -407.1227  -307.4151   600.6047 C5            1 RES     
   29119 H6        -399.5121  -317.2204   587.7802 H6            1 RES     
   29120 H6        -398.4013  -316.8149   589.1410 H6            1 RES     
   29121 H6        -399.8740  -317.7964   589.4297 H6            1 RES     
   29122 H6        -401.3453  -315.8987   588.8398 H6            1 RES     
   29123 H6        -400.2767  -315.4472   590.2261 H6            1 RES     
   29124 H6        -398.7866  -314.1428   588.6383 H6            1 RES     
   29125 H6        -399.7624  -314.7599   587.2826 H6            1 RES     
   29126 H6        -401.7803  -313.4830   587.9971 H6            1 RES     
   29127 H6        -400.3877  -312.4689   587.4753 H6            1 RES     
   29128 H6        -399.9313  -311.7605   589.8129 H6            1 RES     
   29129 H6        -401.1823  -312.8762   590.3724 H6            1 RES     
   29130 H6        -402.0485  -310.7097   590.7392 H6            1 RES     
   29131 H6        -403.0622  -311.4560   589.4703 H6            1 RES     
   29132 H6        -401.0565  -309.1589   589.1863 H6            1 RES     
   29133 H6        -402.0463  -309.6531   587.8204 H6            1 RES     
   29134 H6        -402.3579  -307.2825   588.8860 H6            1 RES     
   29135 H6        -403.0002  -307.9977   590.3632 H6            1 RES     
   29136 H6        -404.5326  -307.5984   587.6332 H6            1 RES     
   29137 H6        -405.1725  -308.3909   589.0864 H6            1 RES     
   29138 H6        -405.8126  -306.1768   590.1465 H6            1 RES     
   29139 H6        -406.6783  -306.6793   588.7164 H6            1 RES     
   29140 H6        -406.3852  -304.7600   587.4815 H6            1 RES     
   29141 H6        -404.4775  -303.1703   587.5434 H6            1 RES     
   29142 H6        -404.2714  -304.8998   587.3289 H6            1 RES     
   29143 H6        -403.4521  -305.2042   589.7443 H6            1 RES     
   29144 H6        -403.3891  -303.4159   589.7938 H6            1 RES     
   29145 H6        -401.7409  -303.6230   587.7386 H6            1 RES     
   29146 H6        -401.7966  -305.3615   587.9002 H6            1 RES     
   29147 H6        -399.7236  -304.3847   588.9422 H6            1 RES     
   29148 H6        -400.6831  -305.3260   590.1132 H6            1 RES     
   29149 H6        -401.6160  -303.3541   591.1111 H6            1 RES     
   29150 H6        -399.8682  -303.2280   591.2017 H6            1 RES     
   29151 H6        -401.0986  -301.8996   588.7293 H6            1 RES     
   29152 H6        -401.6642  -301.2776   590.2801 H6            1 RES     
   29153 H6        -399.4347  -300.6642   590.9963 H6            1 RES     
   29154 H6        -399.8483  -299.9552   589.3939 H6            1 RES     
   29155 H6        -398.4486  -301.7129   588.2584 H6            1 RES     
   29156 H6        -397.5197  -300.6946   589.4237 H6            1 RES     
   29157 H6        -397.9914  -302.3674   589.8887 H6            1 RES     
   29158 H6        -408.0070  -303.3233   587.6421 H6            1 RES     
   29159 H6        -406.9148  -302.2341   588.3377 H6            1 RES     
   29160 H6        -407.8189  -301.7298   591.1790 H6            1 RES     
   29161 H6        -409.4113  -302.3578   591.7287 H6            1 RES     
   29162 H6        -407.2908  -304.3278   590.5710 H6            1 RES     
   29163 H6        -408.3375  -306.0114   591.7991 H6            1 RES     
   29164 H6        -409.3561  -304.8388   592.6887 H6            1 RES     
   29165 H6        -410.5926  -306.1802   591.0584 H6            1 RES     
   29166 H6        -410.7278  -304.4095   590.7602 H6            1 RES     
   29167 H6        -409.3752  -304.5671   588.7867 H6            1 RES     
   29168 H6        -408.7631  -306.1918   589.1771 H6            1 RES     
   29169 H6        -410.3533  -306.1179   587.2863 H6            1 RES     
   29170 H6        -410.9541  -307.0813   588.6912 H6            1 RES     
   29171 H6        -412.2974  -305.0865   589.4313 H6            1 RES     
   29172 H6        -411.8125  -304.1860   587.9474 H6            1 RES     
   29173 H6        -412.9681  -305.9506   586.5695 H6            1 RES     
   29174 H6        -413.2082  -306.9430   588.0681 H6            1 RES     
   29175 H6        -414.4310  -304.2163   587.5069 H6            1 RES     
   29176 H6        -414.5430  -305.0942   589.1035 H6            1 RES     
   29177 H6        -415.6425  -306.0176   586.4007 H6            1 RES     
   29178 H6        -416.5728  -305.4054   587.8316 H6            1 RES     
   29179 H6        -415.6775  -306.9694   587.9530 H6            1 RES     
   29180 H6        -407.2435  -303.5092   593.4569 H6            1 RES     
   29181 H6        -406.1723  -302.9261   592.1478 H6            1 RES     
   29182 H6        -405.0969  -305.0590   591.7870 H6            1 RES     
   29183 H6        -404.9051  -304.3720   593.3839 H6            1 RES     
   29184 H6        -406.4971  -306.9319   592.7890 H6            1 RES     
   29185 H6        -404.9155  -306.7100   593.5850 H6            1 RES     
   29186 H6        -407.6394  -305.7543   594.5833 H6            1 RES     
   29187 H6        -406.0758  -305.2749   595.3688 H6            1 RES     
   29188 H6        -405.5592  -307.5641   596.0164 H6            1 RES     
   29189 H6        -406.9087  -308.2188   595.0313 H6            1 RES     
   29190 H6        -407.5912  -308.2138   597.3912 H6            1 RES     
   29191 H6        -408.5995  -307.1490   596.3776 H6            1 RES     
   29192 H6        -408.2598  -306.0323   598.4767 H6            1 RES     
   29193 H6        -407.4083  -305.1243   597.2198 H6            1 RES     
   29194 H6        -405.2171  -306.1025   597.9639 H6            1 RES     
   29195 H6        -406.0667  -305.1951   599.2552 H6            1 RES     
   29196 H6        -405.9447  -308.2742   598.9993 H6            1 RES     
   29197 H6        -405.0294  -307.2390   600.1414 H6            1 RES     
   29198 H6        -407.1679  -306.4870   601.2137 H6            1 RES     
   29199 H6        -408.1002  -307.5759   600.1057 H6            1 RES     
   29200 H6        -406.9473  -308.2760   601.2836 H6            1 RES     
   29201 C0        -422.0987  -293.5017   590.2823 C0            1 RES     
   29202 C0        -422.2244  -295.3408   590.4353 C0            1 RES     
   29203 C0        -422.0727  -295.6897   591.7713 C0            1 RES     
   29204 S1        -421.8421  -297.3617   592.0922 S1            1 RES     
   29205 C0        -421.8733  -298.0408   590.5779 C0            1 RES     
   29206 C0        -422.1319  -296.7685   589.7212 C0            1 RES     
   29207 C0        -421.5517  -294.5851   592.5774 C0            1 RES     
   29208 C0        -421.0438  -293.7758   591.3951 C0            1 RES     
   29209 C0        -419.7277  -294.0272   591.1572 C0            1 RES     
   29210 C0        -419.0853  -294.8107   592.1128 C0            1 RES     
   29211 S1        -420.1034  -295.2427   593.4975 S1            1 RES     
   29212 H2        -422.1048  -296.8986   588.6460 H2            1 RES     
   29213 H2        -419.2463  -293.8299   590.2134 H2            1 RES     
   29214 N3        -420.6847  -301.5934   591.9634 N3            1 RES     
   29215 C0        -420.9783  -300.2975   591.7772 C0            1 RES     
   29216 C0        -421.5609  -299.7063   590.5593 C0            1 RES     
   29217 C0        -421.7539  -300.7901   589.5732 C0            1 RES     
   29218 N3        -422.2678  -300.6288   588.3127 N3            1 RES     
   29219 S1        -422.2788  -302.1739   587.6898 S1            1 RES     
   29220 N3        -421.6397  -303.0956   588.9030 N3            1 RES     
   29221 C0        -421.4082  -302.1847   589.8578 C0            1 RES     
   29222 C0        -420.8676  -302.5897   591.0536 C0            1 RES     
   29223 H4        -420.7358  -299.6877   592.6190 H4            1 RES     
   29224 C5        -427.7523  -275.6388   595.2991 C5            1 RES     
   29225 C5        -427.5235  -277.1225   594.8933 C5            1 RES     
   29226 C5        -426.7661  -277.2968   593.5361 C5            1 RES     
   29227 C5        -426.1955  -278.7495   593.1586 C5            1 RES     
   29228 C5        -427.1618  -279.9220   592.6921 C5            1 RES     
   29229 C5        -426.6632  -281.5036   592.5274 C5            1 RES     
   29230 C5        -425.7601  -282.1650   591.3107 C5            1 RES     
   29231 C5        -425.5172  -283.8515   590.8902 C5            1 RES     
   29232 C5        -424.4135  -285.0526   591.3894 C5            1 RES     
   29233 C5        -424.0910  -286.8092   591.1561 C5            1 RES     
   29234 C5        -423.2371  -287.8918   590.0276 C5            1 RES     
   29235 C5        -423.3297  -286.9242   588.7128 C5            1 RES     
   29236 C5        -424.7354  -286.3746   588.1921 C5            1 RES     
   29237 C5        -424.6792  -285.0688   587.2866 C5            1 RES     
   29238 C5        -426.0405  -284.6295   586.6234 C5            1 RES     
   29239 C5        -426.7573  -285.7600   585.8531 C5            1 RES     
   29240 C5        -425.8789  -286.4563   584.7855 C5            1 RES     
   29241 C5        -426.2967  -286.2480   583.3252 C5            1 RES     
   29242 C5        -426.2908  -284.7958   582.8604 C5            1 RES     
   29243 C5        -422.6158  -289.7622   589.8992 C5            1 RES     
   29244 C0        -422.8459  -291.6484   590.3689 C0            1 RES     
   29245 C5        -424.3925  -291.7431   590.4193 C5            1 RES     
   29246 C5        -425.1648  -290.5106   591.0974 C5            1 RES     
   29247 C5        -425.2632  -290.6221   592.6286 C5            1 RES     
   29248 C5        -423.9584  -290.9017   593.4095 C5            1 RES     
   29249 C5        -422.7855  -289.9355   593.1344 C5            1 RES     
   29250 C5        -421.6471  -290.0126   594.1434 C5            1 RES     
   29251 C5        -421.1053  -291.4336   594.3023 C5            1 RES     
   29252 C5        -420.1509  -291.5126   595.4893 C5            1 RES     
   29253 C5        -419.8839  -292.9743   595.8217 C5            1 RES     
   29254 C5        -419.1127  -293.1495   597.1099 C5            1 RES     
   29255 C5        -426.5525  -290.2646   590.4129 C5            1 RES     
   29256 C5        -427.3267  -288.8969   590.5428 C5            1 RES     
   29257 C5        -428.0806  -288.4721   591.8324 C5            1 RES     
   29258 C5        -429.0717  -289.5426   592.3070 C5            1 RES     
   29259 C5        -430.0591  -289.0418   593.3852 C5            1 RES     
   29260 C5        -430.7750  -290.2120   594.0952 C5            1 RES     
   29261 C5        -431.5624  -291.1777   593.1851 C5            1 RES     
   29262 C5        -432.8054  -290.5777   592.5019 C5            1 RES     
   29263 C5        -433.8998  -290.0795   593.4665 C5            1 RES     
   29264 C5        -434.4518  -291.1775   594.3800 C5            1 RES     
   29265 H6        -426.7889  -275.0921   595.4167 H6            1 RES     
   29266 H6        -428.3787  -275.0865   594.5666 H6            1 RES     
   29267 H6        -428.2684  -275.5787   596.2874 H6            1 RES     
   29268 H6        -426.9176  -277.5676   595.7099 H6            1 RES     
   29269 H6        -428.5090  -277.6292   594.8548 H6            1 RES     
   29270 H6        -427.3785  -276.8542   592.7183 H6            1 RES     
   29271 H6        -425.8731  -276.6357   593.6439 H6            1 RES     
   29272 H6        -425.6243  -279.0829   594.0467 H6            1 RES     
   29273 H6        -425.4863  -278.5809   592.3235 H6            1 RES     
   29274 H6        -427.6995  -279.5712   591.7798 H6            1 RES     
   29275 H6        -427.9379  -279.9260   593.4945 H6            1 RES     
   29276 H6        -427.6447  -282.0208   592.4437 H6            1 RES     
   29277 H6        -426.2252  -281.7784   593.5024 H6            1 RES     
   29278 H6        -426.3326  -281.7548   590.4417 H6            1 RES     
   29279 H6        -424.7944  -281.6197   591.2815 H6            1 RES     
   29280 H6        -425.3126  -283.7199   589.8074 H6            1 RES     
   29281 H6        -426.5542  -284.2473   590.9417 H6            1 RES     
   29282 H6        -423.4310  -284.5488   591.2808 H6            1 RES     
   29283 H6        -424.6629  -285.0168   592.4694 H6            1 RES     
   29284 H6        -425.0826  -287.2408   591.3231 H6            1 RES     
   29285 H6        -423.5305  -286.9922   592.0823 H6            1 RES     
   29286 H6        -422.2084  -287.5528   590.2844 H6            1 RES     
   29287 H6        -422.7059  -287.2758   587.8666 H6            1 RES     
   29288 H6        -422.8398  -285.9639   589.0244 H6            1 RES     
   29289 H6        -425.4051  -286.0947   589.0292 H6            1 RES     
   29290 H6        -425.2058  -287.1995   587.6349 H6            1 RES     
   29291 H6        -423.9263  -285.1907   586.4901 H6            1 RES     
   29292 H6        -424.3154  -284.1894   587.8677 H6            1 RES     
   29293 H6        -425.8676  -283.7706   585.9306 H6            1 RES     
   29294 H6        -426.7478  -284.2598   587.4016 H6            1 RES     
   29295 H6        -427.0423  -286.5081   586.6186 H6            1 RES     
   29296 H6        -427.7282  -285.4263   585.4194 H6            1 RES     
   29297 H6        -424.8111  -286.2026   584.8910 H6            1 RES     
   29298 H6        -425.9480  -287.5491   584.9683 H6            1 RES     
   29299 H6        -427.3095  -286.6745   583.1679 H6            1 RES     
   29300 H6        -425.5781  -286.8193   582.6962 H6            1 RES     
   29301 H6        -425.2905  -284.3370   583.0018 H6            1 RES     
   29302 H6        -426.5437  -284.7714   581.7777 H6            1 RES     
   29303 H6        -427.0550  -284.2070   583.4077 H6            1 RES     
   29304 H6        -421.5655  -289.6277   590.2453 H6            1 RES     
   29305 H6        -422.4327  -289.8236   588.8056 H6            1 RES     
   29306 H6        -424.6576  -291.7990   589.3461 H6            1 RES     
   29307 H6        -424.6928  -292.6917   590.9063 H6            1 RES     
   29308 H6        -424.6726  -289.5745   590.9112 H6            1 RES     
   29309 H6        -425.6854  -289.6753   593.0093 H6            1 RES     
   29310 H6        -425.9689  -291.4375   592.8757 H6            1 RES     
   29311 H6        -424.2258  -290.8393   594.4849 H6            1 RES     
   29312 H6        -423.6379  -291.9413   593.1877 H6            1 RES     
   29313 H6        -422.3213  -290.1957   592.2037 H6            1 RES     
   29314 H6        -423.1418  -288.8936   593.0971 H6            1 RES     
   29315 H6        -420.8210  -289.3359   593.8233 H6            1 RES     
   29316 H6        -422.0478  -289.6516   595.1111 H6            1 RES     
   29317 H6        -421.9551  -292.1006   594.5407 H6            1 RES     
   29318 H6        -420.6236  -291.7955   593.3651 H6            1 RES     
   29319 H6        -419.2053  -290.9669   595.2754 H6            1 RES     
   29320 H6        -420.6510  -291.0519   596.3667 H6            1 RES     
   29321 H6        -419.2912  -293.4052   595.0037 H6            1 RES     
   29322 H6        -420.8557  -293.5108   595.9381 H6            1 RES     
   29323 H6        -418.1091  -292.6909   597.0108 H6            1 RES     
   29324 H6        -419.0072  -294.2367   597.3133 H6            1 RES     
   29325 H6        -419.6712  -292.6810   597.9470 H6            1 RES     
   29326 H6        -427.2298  -291.1143   590.6115 H6            1 RES     
   29327 H6        -426.3155  -290.2719   589.3248 H6            1 RES     
   29328 H6        -426.6836  -288.0575   590.2173 H6            1 RES     
   29329 H6        -428.1225  -288.9442   589.7679 H6            1 RES     
   29330 H6        -427.3904  -288.1977   592.6572 H6            1 RES     
   29331 H6        -428.6538  -287.5478   591.5775 H6            1 RES     
   29332 H6        -428.4640  -290.3784   592.7094 H6            1 RES     
   29333 H6        -429.6729  -289.8997   591.4440 H6            1 RES     
   29334 H6        -430.7961  -288.3371   592.9352 H6            1 RES     
   29335 H6        -429.5054  -288.4858   594.1730 H6            1 RES     
   29336 H6        -431.4396  -289.8183   594.8930 H6            1 RES     
   29337 H6        -429.9868  -290.8095   594.6019 H6            1 RES     
   29338 H6        -431.8775  -292.0503   593.7928 H6            1 RES     
   29339 H6        -430.8847  -291.5824   592.4055 H6            1 RES     
   29340 H6        -432.4961  -289.7387   591.8436 H6            1 RES     
   29341 H6        -433.2501  -291.3648   591.8531 H6            1 RES     
   29342 H6        -433.5175  -289.2427   594.0860 H6            1 RES     
   29343 H6        -434.7419  -289.6885   592.8548 H6            1 RES     
   29344 H6        -434.8589  -292.0173   593.7775 H6            1 RES     
   29345 H6        -433.6680  -291.5616   595.0645 H6            1 RES     
   29346 H6        -435.2692  -290.7619   595.0061 H6            1 RES     
   29347 C0        -417.5256  -306.4300   592.0821 C0            1 RES     
   29348 C0        -417.8969  -305.4100   593.5797 C0            1 RES     
   29349 C0        -419.2357  -305.5743   593.9120 C0            1 RES     
   29350 S1        -419.8637  -304.4777   595.0760 S1            1 RES     
   29351 C0        -418.5568  -303.5164   595.4271 C0            1 RES     
   29352 C0        -417.4843  -304.1838   594.5194 C0            1 RES     
   29353 C0        -419.9996  -306.2108   592.8382 C0            1 RES     
   29354 C0        -418.9683  -305.9427   591.7542 C0            1 RES     
   29355 C0        -419.2540  -304.7972   591.0772 C0            1 RES     
   29356 C0        -420.4812  -304.2126   591.3805 C0            1 RES     
   29357 S1        -421.4616  -305.1418   592.5276 S1            1 RES     
   29358 H2        -416.5213  -303.6900   594.4695 H2            1 RES     
   29359 H2        -418.5248  -304.2478   590.5047 H2            1 RES     
   29360 N3        -420.7886  -300.9661   597.5411 N3            1 RES     
   29361 C0        -420.3187  -301.9175   596.7197 C0            1 RES     
   29362 C0        -418.8996  -302.2439   596.4924 C0            1 RES     
   29363 C0        -418.0831  -301.3306   597.3191 C0            1 RES     
   29364 N3        -416.7133  -301.3229   597.3699 N3            1 RES     
   29365 S1        -416.3655  -300.1266   598.4760 S1            1 RES     
   29366 N3        -417.8499  -299.5510   598.9181 N3            1 RES     
   29367 C0        -418.6770  -300.3173   598.1944 C0            1 RES     
   29368 C0        -420.0330  -300.1291   598.3040 C0            1 RES     
   29369 H4        -421.0905  -302.4447   596.2043 H4            1 RES     
   29370 C5        -417.4757  -323.4136   582.7135 C5            1 RES     
   29371 C5        -417.4043  -322.1715   583.6465 C5            1 RES     
   29372 C5        -416.4473  -321.0474   583.1301 C5            1 RES     
   29373 C5        -416.5188  -319.6016   583.8251 C5            1 RES     
   29374 C5        -415.9202  -319.3509   585.2760 C5            1 RES     
   29375 C5        -416.1818  -317.9507   586.1409 C5            1 RES     
   29376 C5        -415.4789  -316.4707   585.9193 C5            1 RES     
   29377 C5        -415.4293  -315.0855   586.9958 C5            1 RES     
   29378 C5        -416.4617  -313.7548   587.2668 C5            1 RES     
   29379 C5        -416.6236  -312.3393   588.3687 C5            1 RES     
   29380 C5        -416.0476  -310.6591   588.5096 C5            1 RES     
   29381 C5        -414.6569  -310.8530   587.6718 C5            1 RES     
   29382 C5        -413.5948  -311.9707   588.0863 C5            1 RES     
   29383 C5        -412.5841  -312.4261   586.9464 C5            1 RES     
   29384 C5        -411.4227  -313.3917   587.3991 C5            1 RES     
   29385 C5        -410.6261  -312.8858   588.6217 C5            1 RES     
   29386 C5        -410.0573  -311.4552   588.4606 C5            1 RES     
   29387 C5        -408.5303  -311.3385   588.3899 C5            1 RES     
   29388 C5        -407.8865  -312.0819   587.2246 C5            1 RES     
   29389 C5        -416.4295  -309.0058   589.5205 C5            1 RES     
   29390 C0        -417.0630  -308.1433   591.1595 C0            1 RES     
   29391 C5        -416.5740  -309.1590   592.2236 C5            1 RES     
   29392 C5        -416.7410  -310.7134   591.8615 C5            1 RES     
   29393 C5        -418.1355  -311.2701   592.1964 C5            1 RES     
   29394 C5        -419.3615  -310.4871   591.6728 C5            1 RES     
   29395 C5        -419.3802  -310.1952   590.1564 C5            1 RES     
   29396 C5        -420.7272  -309.7372   589.6128 C5            1 RES     
   29397 C5        -421.2788  -308.5273   590.3676 C5            1 RES     
   29398 C5        -422.7250  -308.2590   589.9644 C5            1 RES     
   29399 C5        -423.3451  -307.2745   590.9467 C5            1 RES     
   29400 C5        -424.8339  -307.1077   590.7459 C5            1 RES     
   29401 C5        -415.5795  -311.5672   592.4754 C5            1 RES     
   29402 C5        -415.2198  -313.0078   591.9446 C5            1 RES     
   29403 C5        -416.0782  -314.2630   592.2599 C5            1 RES     
   29404 C5        -416.3239  -314.4377   593.7641 C5            1 RES     
   29405 C5        -416.8930  -315.8232   594.1446 C5            1 RES     
   29406 C5        -417.4686  -315.8329   595.5780 C5            1 RES     
   29407 C5        -416.4933  -315.4283   596.7033 C5            1 RES     
   29408 C5        -415.3314  -316.4071   596.9557 C5            1 RES     
   29409 C5        -415.7580  -317.8226   597.3926 C5            1 RES     
   29410 C5        -416.5689  -317.8403   598.6914 C5            1 RES     
   29411 H6        -417.8449  -323.1435   581.6978 H6            1 RES     
   29412 H6        -416.4946  -323.9228   582.6031 H6            1 RES     
   29413 H6        -418.1952  -324.1656   583.1178 H6            1 RES     
   29414 H6        -418.4396  -321.7747   583.6987 H6            1 RES     
   29415 H6        -417.0942  -322.5109   584.6555 H6            1 RES     
   29416 H6        -415.4088  -321.4467   583.0839 H6            1 RES     
   29417 H6        -416.7652  -320.8942   582.0711 H6            1 RES     
   29418 H6        -417.5910  -319.3253   583.8232 H6            1 RES     
   29419 H6        -415.9752  -318.9181   583.1425 H6            1 RES     
   29420 H6        -414.8349  -319.6065   585.2403 H6            1 RES     
   29421 H6        -416.3854  -320.1722   585.8719 H6            1 RES     
   29422 H6        -415.8331  -318.2643   587.1498 H6            1 RES     
   29423 H6        -417.2782  -317.8342   586.1899 H6            1 RES     
   29424 H6        -414.4123  -316.8035   585.8659 H6            1 RES     
   29425 H6        -415.7137  -316.1444   584.8853 H6            1 RES     
   29426 H6        -414.4833  -314.6329   586.6327 H6            1 RES     
   29427 H6        -415.1674  -315.5631   587.9642 H6            1 RES     
   29428 H6        -416.6354  -313.3618   586.2439 H6            1 RES     
   29429 H6        -417.3643  -314.3427   587.5307 H6            1 RES     
   29430 H6        -416.4898  -312.8055   589.3496 H6            1 RES     
   29431 H6        -417.7048  -312.1792   588.2639 H6            1 RES     
   29432 H6        -416.5995  -310.2640   587.6274 H6            1 RES     
   29433 H6        -414.1504  -309.8952   587.4380 H6            1 RES     
   29434 H6        -414.9751  -311.2387   586.6672 H6            1 RES     
   29435 H6        -414.0873  -312.9113   588.4028 H6            1 RES     
   29436 H6        -413.0367  -311.5674   588.9455 H6            1 RES     
   29437 H6        -412.1349  -311.5433   586.4616 H6            1 RES     
   29438 H6        -413.1182  -312.9455   586.1168 H6            1 RES     
   29439 H6        -410.7165  -313.5629   586.5507 H6            1 RES     
   29440 H6        -411.8341  -314.3933   587.6640 H6            1 RES     
   29441 H6        -411.3430  -312.8879   589.4661 H6            1 RES     
   29442 H6        -409.8311  -313.6018   588.9338 H6            1 RES     
   29443 H6        -410.4962  -310.9242   587.5998 H6            1 RES     
   29444 H6        -410.3647  -310.8789   589.3582 H6            1 RES     
   29445 H6        -408.0889  -311.7038   589.3407 H6            1 RES     
   29446 H6        -408.2907  -310.2564   588.2892 H6            1 RES     
   29447 H6        -408.3039  -311.7398   586.2552 H6            1 RES     
   29448 H6        -406.7940  -311.8744   587.2347 H6            1 RES     
   29449 H6        -408.0319  -313.1764   587.3310 H6            1 RES     
   29450 H6        -417.1020  -308.4994   588.7910 H6            1 RES     
   29451 H6        -415.4946  -308.4421   589.3166 H6            1 RES     
   29452 H6        -415.4979  -308.9126   592.3038 H6            1 RES     
   29453 H6        -417.0583  -308.9430   593.1962 H6            1 RES     
   29454 H6        -416.6041  -310.9004   590.8129 H6            1 RES     
   29455 H6        -418.1952  -312.2960   591.7920 H6            1 RES     
   29456 H6        -418.2346  -311.3277   593.2969 H6            1 RES     
   29457 H6        -420.2494  -311.1024   591.9274 H6            1 RES     
   29458 H6        -419.4262  -309.5302   592.2321 H6            1 RES     
   29459 H6        -418.7253  -309.3732   589.9444 H6            1 RES     
   29460 H6        -419.0634  -311.0833   589.5865 H6            1 RES     
   29461 H6        -420.6243  -309.4830   588.5321 H6            1 RES     
   29462 H6        -421.4237  -310.5930   589.7120 H6            1 RES     
   29463 H6        -421.2964  -308.7740   591.4459 H6            1 RES     
   29464 H6        -420.6393  -307.6268   590.2211 H6            1 RES     
   29465 H6        -422.7822  -307.8792   588.9204 H6            1 RES     
   29466 H6        -423.2880  -309.2126   590.0403 H6            1 RES     
   29467 H6        -422.8653  -306.2981   590.7965 H6            1 RES     
   29468 H6        -423.1873  -307.6424   591.9886 H6            1 RES     
   29469 H6        -425.0306  -306.6753   589.7451 H6            1 RES     
   29470 H6        -425.2216  -306.4231   591.5305 H6            1 RES     
   29471 H6        -425.3378  -308.0915   590.8481 H6            1 RES     
   29472 H6        -415.6490  -311.5659   593.5778 H6            1 RES     
   29473 H6        -414.6608  -311.0028   592.1967 H6            1 RES     
   29474 H6        -415.0226  -312.9796   590.8562 H6            1 RES     
   29475 H6        -414.2290  -313.2386   592.3931 H6            1 RES     
   29476 H6        -417.0436  -314.2662   591.7121 H6            1 RES     
   29477 H6        -415.5012  -315.1456   591.8911 H6            1 RES     
   29478 H6        -417.0361  -313.6415   594.0617 H6            1 RES     
   29479 H6        -415.3674  -314.3075   594.3134 H6            1 RES     
   29480 H6        -416.1105  -316.6076   594.0235 H6            1 RES     
   29481 H6        -417.7335  -316.0840   593.4652 H6            1 RES     
   29482 H6        -417.9097  -316.8276   595.7999 H6            1 RES     
   29483 H6        -418.3055  -315.1019   595.5921 H6            1 RES     
   29484 H6        -417.0725  -315.3145   597.6422 H6            1 RES     
   29485 H6        -416.0753  -314.4243   596.4836 H6            1 RES     
   29486 H6        -414.7086  -316.4851   596.0398 H6            1 RES     
   29487 H6        -414.6925  -315.9767   597.7586 H6            1 RES     
   29488 H6        -416.3406  -318.3165   596.5881 H6            1 RES     
   29489 H6        -414.8360  -318.4216   597.5572 H6            1 RES     
   29490 H6        -415.9938  -317.3677   599.5161 H6            1 RES     
   29491 H6        -417.5364  -317.3121   598.5677 H6            1 RES     
   29492 H6        -416.7940  -318.8904   598.9731 H6            1 RES     
   29493 C0        -422.7437  -295.7946   599.2203 C0            1 RES     
   29494 C0        -423.8411  -297.2404   598.8645 C0            1 RES     
   29495 C0        -423.6964  -298.1731   599.8836 C0            1 RES     
   29496 S1        -424.3834  -299.7207   599.5924 S1            1 RES     
   29497 C0        -425.0281  -299.5631   598.0710 C0            1 RES     
   29498 C0        -424.6715  -298.0765   597.7837 C0            1 RES     
   29499 C0        -422.5293  -297.9006   600.7234 C0            1 RES     
   29500 C0        -421.8555  -296.9687   599.7293 C0            1 RES     
   29501 C0        -420.9581  -297.6402   598.9574 C0            1 RES     
   29502 C0        -420.7145  -298.9593   599.3321 C0            1 RES     
   29503 S1        -421.5634  -299.4617   600.8043 S1            1 RES     
   29504 H2        -424.8939  -297.7121   596.7880 H2            1 RES     
   29505 H2        -420.6069  -297.2795   598.0044 H2            1 RES     
   29506 N3        -425.8044  -303.4726   597.8127 N3            1 RES     
   29507 C0        -425.3557  -302.2502   598.1362 C0            1 RES     
   29508 C0        -425.6991  -300.9908   597.4520 C0            1 RES     
   29509 C0        -426.6156  -301.3120   596.3379 C0            1 RES     
   29510 N3        -427.1481  -300.3991   595.4649 N3            1 RES     
   29511 S1        -428.1134  -301.3216   594.4686 S1            1 RES     
   29512 N3        -427.9078  -302.8614   595.0312 N3            1 RES     
   29513 C0        -427.0607  -302.6781   596.0529 C0            1 RES     
   29514 C0        -426.6518  -303.7639   596.7877 C0            1 RES     
   29515 H4        -424.6847  -302.2562   598.9662 H4            1 RES     
   29516 C5        -416.6553  -281.6058   610.9602 C5            1 RES     
   29517 C5        -417.3559  -282.6829   610.0840 C5            1 RES     
   29518 C5        -417.0516  -282.5500   608.5557 C5            1 RES     
   29519 C5        -417.4513  -283.7664   607.5867 C5            1 RES     
   29520 C5        -418.9653  -284.0461   607.1918 C5            1 RES     
   29521 C5        -419.4611  -285.4257   606.3995 C5            1 RES     
   29522 C5        -419.2852  -285.7993   604.7985 C5            1 RES     
   29523 C5        -420.0891  -287.0340   603.8450 C5            1 RES     
   29524 C5        -419.7734  -288.6794   603.5242 C5            1 RES     
   29525 C5        -420.5211  -290.0872   602.6856 C5            1 RES     
   29526 C5        -420.6047  -290.8065   601.0576 C5            1 RES     
   29527 C5        -420.3549  -289.4271   600.2159 C5            1 RES     
   29528 C5        -421.2818  -288.1466   600.4396 C5            1 RES     
   29529 C5        -420.6573  -286.7512   600.0022 C5            1 RES     
   29530 C5        -421.6321  -285.5128   600.0515 C5            1 RES     
   29531 C5        -422.9676  -285.7350   599.3085 C5            1 RES     
   29532 C5        -422.8074  -286.1911   597.8380 C5            1 RES     
   29533 C5        -423.2673  -285.1952   596.7670 C5            1 RES     
   29534 C5        -422.5321  -283.8595   596.7794 C5            1 RES     
   29535 C5        -421.1546  -292.4816   600.1672 C5            1 RES     
   29536 C0        -422.3128  -294.0588   600.1156 C0            1 RES     
   29537 C5        -423.6203  -293.4719   600.7066 C5            1 RES     
   29538 C5        -423.4591  -292.4716   601.9512 C5            1 RES     
   29539 C5        -423.3557  -293.1956   603.3046 C5            1 RES     
   29540 C5        -422.3198  -294.3368   603.4266 C5            1 RES     
   29541 C5        -420.8704  -293.9796   603.0309 C5            1 RES     
   29542 C5        -419.8216  -294.9909   603.4749 C5            1 RES     
   29543 C5        -420.1413  -296.4083   602.9986 C5            1 RES     
   29544 C5        -419.2152  -297.4190   603.6672 C5            1 RES     
   29545 C5        -419.7540  -298.8238   603.4340 C5            1 RES     
   29546 C5        -419.0147  -299.8734   604.2317 C5            1 RES     
   29547 C5        -424.5660  -291.3628   601.9351 C5            1 RES     
   29548 C5        -424.4193  -290.0127   602.7366 C5            1 RES     
   29549 C5        -424.5927  -289.9217   604.2773 C5            1 RES     
   29550 C5        -425.9195  -290.5292   604.7508 C5            1 RES     
   29551 C5        -426.2754  -290.1821   606.2141 C5            1 RES     
   29552 C5        -427.3948  -291.0935   606.7638 C5            1 RES     
   29553 C5        -428.7192  -291.0939   605.9719 C5            1 RES     
   29554 C5        -429.5114  -289.7735   606.0066 C5            1 RES     
   29555 C5        -429.9744  -289.3307   607.4087 C5            1 RES     
   29556 C5        -430.8873  -290.3486   608.0981 C5            1 RES     
   29557 H6        -415.5465  -281.6575   610.8658 H6            1 RES     
   29558 H6        -416.9782  -280.5732   610.7085 H6            1 RES     
   29559 H6        -416.8850  -281.7703   612.0404 H6            1 RES     
   29560 H6        -416.9768  -283.6603   610.4487 H6            1 RES     
   29561 H6        -418.4478  -282.6254   610.2680 H6            1 RES     
   29562 H6        -417.4376  -281.5711   608.1917 H6            1 RES     
   29563 H6        -415.9385  -282.4770   608.5123 H6            1 RES     
   29564 H6        -417.0272  -284.6732   608.0599 H6            1 RES     
   29565 H6        -416.9125  -283.5771   606.6366 H6            1 RES     
   29566 H6        -419.3563  -283.1297   606.6899 H6            1 RES     
   29567 H6        -419.4726  -284.0630   608.1861 H6            1 RES     
   29568 H6        -420.5628  -285.3581   606.5391 H6            1 RES     
   29569 H6        -419.0993  -286.2667   607.0158 H6            1 RES     
   29570 H6        -419.6648  -284.8404   604.3651 H6            1 RES     
   29571 H6        -418.1990  -285.7878   604.5735 H6            1 RES     
   29572 H6        -420.0227  -286.5405   602.8531 H6            1 RES     
   29573 H6        -421.1472  -286.9073   604.1598 H6            1 RES     
   29574 H6        -418.7091  -288.6725   603.2108 H6            1 RES     
   29575 H6        -419.7840  -289.0214   604.5791 H6            1 RES     
   29576 H6        -421.5434  -290.0598   603.0749 H6            1 RES     
   29577 H6        -420.0161  -290.8890   603.2403 H6            1 RES     
   29578 H6        -419.5355  -291.1108   601.0010 H6            1 RES     
   29579 H6        -420.1760  -289.6006   599.1358 H6            1 RES     
   29580 H6        -419.3725  -289.0336   600.5892 H6            1 RES     
   29581 H6        -421.5394  -288.0047   601.5078 H6            1 RES     
   29582 H6        -422.2126  -288.3340   599.8822 H6            1 RES     
   29583 H6        -420.2377  -286.8247   598.9850 H6            1 RES     
   29584 H6        -419.7796  -286.4848   600.6362 H6            1 RES     
   29585 H6        -421.1258  -284.6119   599.6277 H6            1 RES     
   29586 H6        -421.8800  -285.2582   601.1081 H6            1 RES     
   29587 H6        -423.4923  -286.5324   599.8704 H6            1 RES     
   29588 H6        -423.6451  -284.8533   599.3844 H6            1 RES     
   29589 H6        -421.7777  -286.5119   597.6086 H6            1 RES     
   29590 H6        -423.4402  -287.0934   597.7055 H6            1 RES     
   29591 H6        -424.3562  -285.0104   596.8798 H6            1 RES     
   29592 H6        -423.0979  -285.6782   595.7789 H6            1 RES     
   29593 H6        -421.4381  -284.0065   596.6667 H6            1 RES     
   29594 H6        -422.8987  -283.2475   595.9262 H6            1 RES     
   29595 H6        -422.7421  -283.3063   597.7176 H6            1 RES     
   29596 H6        -420.1668  -292.9944   600.1215 H6            1 RES     
   29597 H6        -421.2145  -292.1242   599.1175 H6            1 RES     
   29598 H6        -424.0399  -292.9213   599.8429 H6            1 RES     
   29599 H6        -424.3132  -294.2950   600.9702 H6            1 RES     
   29600 H6        -422.5681  -291.8766   601.8778 H6            1 RES     
   29601 H6        -423.1147  -292.4404   604.0735 H6            1 RES     
   29602 H6        -424.3445  -293.6292   603.5462 H6            1 RES     
   29603 H6        -422.3311  -294.6481   604.4919 H6            1 RES     
   29604 H6        -422.6699  -295.1900   602.8084 H6            1 RES     
   29605 H6        -420.7848  -293.9737   601.9622 H6            1 RES     
   29606 H6        -420.5899  -292.9936   603.4348 H6            1 RES     
   29607 H6        -418.8231  -294.6861   603.0837 H6            1 RES     
   29608 H6        -419.7936  -294.9627   604.5820 H6            1 RES     
   29609 H6        -421.1668  -296.6587   603.3294 H6            1 RES     
   29610 H6        -420.0988  -296.4865   601.8880 H6            1 RES     
   29611 H6        -418.1747  -297.3162   603.2870 H6            1 RES     
   29612 H6        -419.2276  -297.2290   604.7608 H6            1 RES     
   29613 H6        -419.6400  -299.0578   602.3670 H6            1 RES     
   29614 H6        -420.8264  -298.8645   603.7407 H6            1 RES     
   29615 H6        -417.9567  -299.9152   603.9057 H6            1 RES     
   29616 H6        -419.4986  -300.8578   604.0542 H6            1 RES     
   29617 H6        -419.0769  -299.6338   605.3137 H6            1 RES     
   29618 H6        -425.5583  -291.8141   602.1134 H6            1 RES     
   29619 H6        -424.5509  -290.9895   600.8860 H6            1 RES     
   29620 H6        -423.4810  -289.4978   602.4563 H6            1 RES     
   29621 H6        -425.2197  -289.3536   602.3354 H6            1 RES     
   29622 H6        -423.7447  -290.3793   604.8281 H6            1 RES     
   29623 H6        -424.5895  -288.8349   604.5355 H6            1 RES     
   29624 H6        -425.8219  -291.6279   604.6356 H6            1 RES     
   29625 H6        -426.7468  -290.1585   604.1092 H6            1 RES     
   29626 H6        -426.5589  -289.1074   606.2970 H6            1 RES     
   29627 H6        -425.3887  -290.3435   606.8652 H6            1 RES     
   29628 H6        -427.5914  -290.8477   607.8287 H6            1 RES     
   29629 H6        -427.0011  -292.1325   606.7431 H6            1 RES     
   29630 H6        -429.3628  -291.9049   606.3696 H6            1 RES     
   29631 H6        -428.5150  -291.3621   604.9149 H6            1 RES     
   29632 H6        -428.8993  -288.9637   605.5568 H6            1 RES     
   29633 H6        -430.4149  -289.9023   605.3701 H6            1 RES     
   29634 H6        -429.0989  -289.1227   608.0573 H6            1 RES     
   29635 H6        -430.5435  -288.3822   607.2966 H6            1 RES     
   29636 H6        -431.7820  -290.5556   607.4728 H6            1 RES     
   29637 H6        -430.3503  -291.2984   608.2980 H6            1 RES     
   29638 H6        -431.2241  -289.9420   609.0748 H6            1 RES     
   29639 C0        -425.8861  -308.6901   595.3311 C0            1 RES     
   29640 C0        -425.3838  -308.3967   597.0869 C0            1 RES     
   29641 C0        -426.5150  -308.0812   597.8288 C0            1 RES     
   29642 S1        -426.2334  -307.4666   599.4083 S1            1 RES     
   29643 C0        -424.5769  -307.4506   599.5133 C0            1 RES     
   29644 C0        -424.2164  -308.0410   598.1200 C0            1 RES     
   29645 C0        -427.6638  -307.7626   596.9802 C0            1 RES     
   29646 C0        -426.8468  -307.5273   595.7202 C0            1 RES     
   29647 C0        -426.5538  -306.2076   595.5643 C0            1 RES     
   29648 C0        -427.1834  -305.3447   596.4582 C0            1 RES     
   29649 S1        -428.3152  -306.1457   597.5617 S1            1 RES     
   29650 H2        -423.1642  -308.0592   597.8628 H2            1 RES     
   29651 H2        -425.7455  -305.8469   594.9495 H2            1 RES     
   29652 N3        -424.6470  -305.4169   602.9503 N3            1 RES     
   29653 C0        -424.9222  -306.0008   601.7740 C0            1 RES     
   29654 C0        -423.9806  -306.7810   600.9513 C0            1 RES     
   29655 C0        -422.6750  -306.7972   601.6435 C0            1 RES     
   29656 N3        -421.5438  -307.4187   601.1819 N3            1 RES     
   29657 S1        -420.4193  -307.1316   602.3770 S1            1 RES     
   29658 N3        -421.2417  -306.2239   603.4860 N3            1 RES     
   29659 C0        -422.4580  -306.1342   602.9316 C0            1 RES     
   29660 C0        -423.4436  -305.4374   603.5867 C0            1 RES     
   29661 H4        -425.9275  -305.8418   601.4523 H4            1 RES     
   29662 C5        -436.7616  -317.7845   582.0937 C5            1 RES     
   29663 C5        -435.8652  -317.2626   583.2523 C5            1 RES     
   29664 C5        -434.5433  -316.5798   582.7702 C5            1 RES     
   29665 C5        -433.6889  -315.7303   583.8318 C5            1 RES     
   29666 C5        -432.8283  -316.4441   584.9614 C5            1 RES     
   29667 C5        -432.1272  -315.6217   586.2299 C5            1 RES     
   29668 C5        -430.7683  -314.6802   586.2060 C5            1 RES     
   29669 C5        -429.7873  -314.1010   587.5410 C5            1 RES     
   29670 C5        -429.8495  -312.7284   588.5521 C5            1 RES     
   29671 C5        -429.0204  -312.0435   589.9969 C5            1 RES     
   29672 C5        -427.5960  -311.0510   590.3981 C5            1 RES     
   29673 C5        -426.7020  -311.4440   589.0866 C5            1 RES     
   29674 C5        -426.3876  -312.9683   588.7310 C5            1 RES     
   29675 C5        -425.9975  -313.2631   587.2179 C5            1 RES     
   29676 C5        -425.5114  -314.7297   586.9035 C5            1 RES     
   29677 C5        -424.3844  -315.2306   587.8330 C5            1 RES     
   29678 C5        -423.1527  -314.2954   587.8979 C5            1 RES     
   29679 C5        -421.8522  -314.8473   587.3025 C5            1 RES     
   29680 C5        -421.9253  -315.1932   585.8193 C5            1 RES     
   29681 C5        -426.8294  -310.0432   591.9138 C5            1 RES     
   29682 C0        -426.6058  -309.8195   593.8456 C0            1 RES     
   29683 C5        -426.5988  -311.3001   594.3051 C5            1 RES     
   29684 C5        -427.6549  -312.2769   593.5938 C5            1 RES     
   29685 C5        -429.0486  -312.2437   594.2442 C5            1 RES     
   29686 C5        -429.6999  -310.8592   594.4667 C5            1 RES     
   29687 C5        -429.7966  -309.9495   593.2225 C5            1 RES     
   29688 C5        -430.7301  -308.7560   593.3774 C5            1 RES     
   29689 C5        -430.3888  -307.9050   594.6010 C5            1 RES     
   29690 C5        -431.4860  -306.8779   594.8611 C5            1 RES     
   29691 C5        -431.2892  -306.2734   596.2447 C5            1 RES     
   29692 C5        -432.4449  -305.3966   596.6693 C5            1 RES     
   29693 C5        -427.0810  -313.7281   593.4541 C5            1 RES     
   29694 C5        -427.6709  -314.7738   592.4318 C5            1 RES     
   29695 C5        -429.0172  -315.5131   592.6617 C5            1 RES     
   29696 C5        -429.0734  -316.2093   594.0276 C5            1 RES     
   29697 C5        -430.2452  -317.2068   594.1695 C5            1 RES     
   29698 C5        -430.4907  -317.5972   595.6437 C5            1 RES     
   29699 C5        -429.2895  -318.2128   596.3915 C5            1 RES     
   29700 C5        -428.8427  -319.6010   595.8965 C5            1 RES     
   29701 C5        -429.9056  -320.7099   596.0264 C5            1 RES     
   29702 C5        -430.3694  -320.9428   597.4671 C5            1 RES     
   29703 H6        -437.0763  -316.9595   581.4145 H6            1 RES     
   29704 H6        -436.2603  -318.5656   581.4833 H6            1 RES     
   29705 H6        -437.7012  -318.2325   582.4974 H6            1 RES     
   29706 H6        -436.4824  -316.5193   583.7987 H6            1 RES     
   29707 H6        -435.6383  -318.1126   583.9273 H6            1 RES     
   29708 H6        -433.9239  -317.3290   582.2272 H6            1 RES     
   29709 H6        -434.8879  -315.8492   581.9998 H6            1 RES     
   29710 H6        -434.4117  -315.0405   584.3090 H6            1 RES     
   29711 H6        -432.9755  -315.1343   583.2280 H6            1 RES     
   29712 H6        -432.0893  -317.1068   584.4522 H6            1 RES     
   29713 H6        -433.5679  -317.1437   585.4194 H6            1 RES     
   29714 H6        -431.8543  -316.4686   586.8980 H6            1 RES     
   29715 H6        -432.9502  -315.0685   586.7143 H6            1 RES     
   29716 H6        -430.0902  -315.3869   585.6657 H6            1 RES     
   29717 H6        -430.9450  -313.8627   585.4772 H6            1 RES     
   29718 H6        -428.8220  -314.0048   587.0020 H6            1 RES     
   29719 H6        -429.6829  -315.0194   588.1578 H6            1 RES     
   29720 H6        -429.9375  -311.8907   587.8298 H6            1 RES     
   29721 H6        -430.8702  -312.9053   588.9480 H6            1 RES     
   29722 H6        -429.0122  -312.9019   590.6755 H6            1 RES     
   29723 H6        -429.8315  -311.3946   590.3527 H6            1 RES     
   29724 H6        -427.9692  -310.1072   589.9409 H6            1 RES     
   29725 H6        -425.7949  -310.8173   588.9724 H6            1 RES     
   29726 H6        -427.3368  -311.1576   588.2067 H6            1 RES     
   29727 H6        -427.2606  -313.6246   588.9180 H6            1 RES     
   29728 H6        -425.5705  -313.2824   589.3988 H6            1 RES     
   29729 H6        -425.2190  -312.5580   586.8818 H6            1 RES     
   29730 H6        -426.8546  -313.0632   586.5333 H6            1 RES     
   29731 H6        -425.1657  -314.7980   585.8436 H6            1 RES     
   29732 H6        -426.3602  -315.4463   586.9972 H6            1 RES     
   29733 H6        -424.8356  -315.2909   588.8428 H6            1 RES     
   29734 H6        -424.0819  -316.2785   587.6037 H6            1 RES     
   29735 H6        -423.3549  -313.3050   587.4573 H6            1 RES     
   29736 H6        -422.9404  -314.1094   588.9715 H6            1 RES     
   29737 H6        -421.5418  -315.7496   587.8700 H6            1 RES     
   29738 H6        -421.0729  -314.0651   587.4410 H6            1 RES     
   29739 H6        -422.2321  -314.3113   585.2199 H6            1 RES     
   29740 H6        -420.9164  -315.5185   585.4831 H6            1 RES     
   29741 H6        -422.6337  -316.0292   585.6473 H6            1 RES     
   29742 H6        -427.2150  -309.0272   591.6686 H6            1 RES     
   29743 H6        -425.7861  -309.9260   591.5517 H6            1 RES     
   29744 H6        -425.5704  -311.6190   594.0482 H6            1 RES     
   29745 H6        -426.7187  -311.3501   595.4052 H6            1 RES     
   29746 H6        -427.8149  -312.0169   592.5642 H6            1 RES     
   29747 H6        -429.7310  -312.8371   593.6102 H6            1 RES     
   29748 H6        -428.9850  -312.7339   595.2340 H6            1 RES     
   29749 H6        -430.7254  -311.0598   594.8410 H6            1 RES     
   29750 H6        -429.1327  -310.3335   595.2632 H6            1 RES     
   29751 H6        -428.8401  -309.5039   593.0327 H6            1 RES     
   29752 H6        -430.1215  -310.5284   592.3432 H6            1 RES     
   29753 H6        -430.6785  -308.1231   592.4611 H6            1 RES     
   29754 H6        -431.7574  -309.1595   593.4735 H6            1 RES     
   29755 H6        -430.3671  -308.5687   595.4858 H6            1 RES     
   29756 H6        -429.3909  -307.4205   594.4975 H6            1 RES     
   29757 H6        -431.4896  -306.0926   594.0731 H6            1 RES     
   29758 H6        -432.4622  -307.4062   594.8584 H6            1 RES     
   29759 H6        -430.3802  -305.6575   596.2194 H6            1 RES     
   29760 H6        -431.1972  -307.0929   596.9969 H6            1 RES     
   29761 H6        -432.5263  -304.5279   595.9867 H6            1 RES     
   29762 H6        -432.2563  -305.0406   597.7048 H6            1 RES     
   29763 H6        -433.3853  -305.9862   596.6591 H6            1 RES     
   29764 H6        -426.9603  -314.1864   594.4519 H6            1 RES     
   29765 H6        -426.0626  -313.5701   593.0322 H6            1 RES     
   29766 H6        -427.6687  -314.3552   591.4076 H6            1 RES     
   29767 H6        -426.9178  -315.5906   592.3917 H6            1 RES     
   29768 H6        -429.8953  -314.8457   592.5365 H6            1 RES     
   29769 H6        -429.0943  -316.2919   591.8646 H6            1 RES     
   29770 H6        -429.1660  -315.4064   594.7870 H6            1 RES     
   29771 H6        -428.1320  -316.7744   594.1946 H6            1 RES     
   29772 H6        -430.0603  -318.1099   593.5430 H6            1 RES     
   29773 H6        -431.1852  -316.7368   593.8066 H6            1 RES     
   29774 H6        -431.3668  -318.2762   595.7124 H6            1 RES     
   29775 H6        -430.7669  -316.6641   596.1805 H6            1 RES     
   29776 H6        -429.5489  -318.2856   597.4673 H6            1 RES     
   29777 H6        -428.4269  -317.5173   596.3360 H6            1 RES     
   29778 H6        -428.5241  -319.5298   594.8353 H6            1 RES     
   29779 H6        -427.9534  -319.9046   596.4926 H6            1 RES     
   29780 H6        -430.7841  -320.4800   595.3894 H6            1 RES     
   29781 H6        -429.4582  -321.6571   595.6541 H6            1 RES     
   29782 H6        -429.5054  -321.1950   598.1184 H6            1 RES     
   29783 H6        -430.8866  -320.0488   597.8716 H6            1 RES     
   29784 H6        -431.0901  -321.7871   597.4921 H6            1 RES     
   29785 C0        -423.1079  -301.2693   606.6672 C0            1 RES     
   29786 C0        -424.8627  -301.7532   606.3387 C0            1 RES     
   29787 C0        -425.0981  -302.9970   606.9107 C0            1 RES     
   29788 S1        -426.5636  -303.7703   606.4569 S1            1 RES     
   29789 C0        -427.2469  -302.6866   605.4015 C0            1 RES     
   29790 C0        -426.1777  -301.5578   605.4502 C0            1 RES     
   29791 C0        -423.8591  -303.6733   607.2970 C0            1 RES     
   29792 C0        -422.9517  -302.8028   606.4429 C0            1 RES     
   29793 C0        -422.7148  -303.3794   605.2332 C0            1 RES     
   29794 C0        -423.1869  -304.6816   605.0876 C0            1 RES     
   29795 S1        -423.9226  -305.3526   606.5535 S1            1 RES     
   29796 H2        -426.3170  -300.7330   604.7618 H2            1 RES     
   29797 H2        -422.3809  -302.8299   604.3683 H2            1 RES     
   29798 N3        -430.0893  -305.2758   604.3199 N3            1 RES     
   29799 C0        -428.9933  -304.6650   604.7956 C0            1 RES     
   29800 C0        -428.6855  -303.2278   604.6880 C0            1 RES     
   29801 C0        -429.7907  -302.5781   603.9526 C0            1 RES     
   29802 N3        -429.8597  -301.2435   603.6477 N3            1 RES     
   29803 S1        -431.3191  -301.0932   602.8586 S1            1 RES     
   29804 N3        -431.9145  -302.6342   602.8282 N3            1 RES     
   29805 C0        -430.9572  -303.3196   603.4676 C0            1 RES     
   29806 C0        -431.1072  -304.6730   603.6461 C0            1 RES     
   29807 H4        -428.3155  -305.3350   605.2762 H4            1 RES     
   29808 C5        -408.3879  -298.1180   618.8985 C5            1 RES     
   29809 C5        -409.6976  -298.2585   618.0718 C5            1 RES     
   29810 C5        -409.6205  -297.6101   616.6507 C5            1 RES     
   29811 C5        -410.7767  -297.9509   615.5897 C5            1 RES     
   29812 C5        -412.2315  -297.3247   615.7222 C5            1 RES     
   29813 C5        -413.5283  -297.8288   614.8049 C5            1 RES     
   29814 C5        -413.8484  -297.4860   613.2195 C5            1 RES     
   29815 C5        -415.3423  -297.6695   612.3169 C5            1 RES     
   29816 C5        -416.0479  -298.9487   611.4362 C5            1 RES     
   29817 C5        -417.5734  -299.3430   610.5634 C5            1 RES     
   29818 C5        -418.3015  -299.1431   608.9495 C5            1 RES     
   29819 C5        -417.4678  -297.8043   608.5180 C5            1 RES     
   29820 C5        -417.4792  -296.4963   609.4335 C5            1 RES     
   29821 C5        -416.2659  -295.4902   609.2237 C5            1 RES     
   29822 C5        -416.3677  -294.1165   609.9910 C5            1 RES     
   29823 C5        -417.7007  -293.3695   609.7672 C5            1 RES     
   29824 C5        -418.0585  -293.1422   608.2784 C5            1 RES     
   29825 C5        -418.0539  -291.6869   607.7963 C5            1 RES     
   29826 C5        -416.7110  -290.9761   607.9245 C5            1 RES     
   29827 C5        -419.8218  -299.8099   607.8796 C5            1 RES     
   29828 C0        -421.6503  -300.5047   607.8034 C0            1 RES     
   29829 C5        -422.2980  -299.7325   608.9813 C5            1 RES     
   29830 C5        -421.4124  -299.5772   610.3105 C5            1 RES     
   29831 C5        -421.5122  -300.7886   611.2534 C5            1 RES     
   29832 C5        -421.2791  -302.1898   610.6429 C5            1 RES     
   29833 C5        -419.9608  -302.3757   609.8603 C5            1 RES     
   29834 C5        -419.5936  -303.8244   609.5666 C5            1 RES     
   29835 C5        -420.7167  -304.5762   608.8514 C5            1 RES     
   29836 C5        -420.4133  -306.0701   608.8015 C5            1 RES     
   29837 C5        -421.6695  -306.8233   608.3856 C5            1 RES     
   29838 C5        -421.5195  -308.3224   608.5075 C5            1 RES     
   29839 C5        -421.7043  -298.2171   611.0314 C5            1 RES     
   29840 C5        -420.7076  -297.5859   612.0778 C5            1 RES     
   29841 C5        -420.5518  -298.1232   613.5266 C5            1 RES     
   29842 C5        -421.8962  -298.2211   614.2591 C5            1 RES     
   29843 C5        -421.7598  -298.4437   615.7823 C5            1 RES     
   29844 C5        -423.0911  -298.9039   616.4162 C5            1 RES     
   29845 C5        -424.3000  -297.9674   616.2100 C5            1 RES     
   29846 C5        -424.2095  -296.6039   616.9205 C5            1 RES     
   29847 C5        -424.1174  -296.6774   618.4575 C5            1 RES     
   29848 C5        -425.3166  -297.3740   619.1067 C5            1 RES     
   29849 H6        -407.5261  -298.6060   618.3885 H6            1 RES     
   29850 H6        -408.1196  -297.0587   619.0984 H6            1 RES     
   29851 H6        -408.4934  -298.6248   619.8878 H6            1 RES     
   29852 H6        -409.8713  -299.3498   617.9669 H6            1 RES     
   29853 H6        -410.5280  -297.8132   618.6563 H6            1 RES     
   29854 H6        -409.4516  -296.5149   616.7592 H6            1 RES     
   29855 H6        -408.6780  -298.0255   616.2204 H6            1 RES     
   29856 H6        -410.8570  -299.0552   615.5843 H6            1 RES     
   29857 H6        -410.3841  -297.6190   614.6076 H6            1 RES     
   29858 H6        -412.1234  -296.2148   615.6928 H6            1 RES     
   29859 H6        -412.4958  -297.5558   616.7819 H6            1 RES     
   29860 H6        -414.3682  -297.3515   615.3568 H6            1 RES     
   29861 H6        -413.6000  -298.9179   614.9681 H6            1 RES     
   29862 H6        -413.6965  -296.3785   613.2586 H6            1 RES     
   29863 H6        -412.9910  -297.8568   612.6211 H6            1 RES     
   29864 H6        -415.1736  -296.8734   611.5623 H6            1 RES     
   29865 H6        -416.0857  -297.2434   613.0243 H6            1 RES     
   29866 H6        -415.2251  -299.2741   610.7668 H6            1 RES     
   29867 H6        -416.0770  -299.6795   612.2699 H6            1 RES     
   29868 H6        -418.3307  -299.0432   611.2942 H6            1 RES     
   29869 H6        -417.5165  -300.4374   610.6305 H6            1 RES     
   29870 H6        -417.6060  -299.8273   608.4137 H6            1 RES     
   29871 H6        -417.5911  -297.5384   607.4490 H6            1 RES     
   29872 H6        -416.3875  -298.0974   608.5971 H6            1 RES     
   29873 H6        -417.4396  -296.7467   610.5120 H6            1 RES     
   29874 H6        -418.4327  -295.9835   609.2331 H6            1 RES     
   29875 H6        -416.1270  -295.2807   608.1500 H6            1 RES     
   29876 H6        -415.2997  -295.9520   609.5344 H6            1 RES     
   29877 H6        -415.5228  -293.4496   609.6927 H6            1 RES     
   29878 H6        -416.2596  -294.2782   611.0886 H6            1 RES     
   29879 H6        -418.4811  -294.0091   610.2243 H6            1 RES     
   29880 H6        -417.7532  -292.4169   610.3433 H6            1 RES     
   29881 H6        -417.4322  -293.7450   607.6002 H6            1 RES     
   29882 H6        -419.0968  -293.5071   608.1330 H6            1 RES     
   29883 H6        -418.8226  -291.1121   608.3541 H6            1 RES     
   29884 H6        -418.3417  -291.6990   606.7214 H6            1 RES     
   29885 H6        -415.9171  -291.5237   607.3759 H6            1 RES     
   29886 H6        -416.8081  -289.9581   607.4875 H6            1 RES     
   29887 H6        -416.4255  -290.8692   608.9910 H6            1 RES     
   29888 H6        -419.3067  -300.6256   607.3227 H6            1 RES     
   29889 H6        -419.8410  -299.0384   607.0811 H6            1 RES     
   29890 H6        -422.4741  -298.7342   608.5368 H6            1 RES     
   29891 H6        -423.2779  -300.1851   609.2304 H6            1 RES     
   29892 H6        -420.3667  -299.4744   610.0888 H6            1 RES     
   29893 H6        -420.7734  -300.6484   612.0623 H6            1 RES     
   29894 H6        -422.5214  -300.7974   611.7069 H6            1 RES     
   29895 H6        -421.2901  -302.9009   611.4950 H6            1 RES     
   29896 H6        -422.1371  -302.4254   609.9788 H6            1 RES     
   29897 H6        -420.0590  -301.9340   608.8883 H6            1 RES     
   29898 H6        -419.1205  -301.9106   610.4001 H6            1 RES     
   29899 H6        -418.6719  -303.8540   608.9401 H6            1 RES     
   29900 H6        -419.3775  -304.3069   610.5402 H6            1 RES     
   29901 H6        -421.6401  -304.4655   609.4507 H6            1 RES     
   29902 H6        -420.9035  -304.1623   607.8340 H6            1 RES     
   29903 H6        -419.5676  -306.2806   608.1101 H6            1 RES     
   29904 H6        -420.1428  -306.4026   609.8255 H6            1 RES     
   29905 H6        -421.8772  -306.5818   607.3346 H6            1 RES     
   29906 H6        -422.5187  -306.5177   609.0423 H6            1 RES     
   29907 H6        -420.7309  -308.6774   607.8151 H6            1 RES     
   29908 H6        -422.4888  -308.7970   608.2431 H6            1 RES     
   29909 H6        -421.2640  -308.5891   609.5542 H6            1 RES     
   29910 H6        -422.7364  -298.2098   611.4251 H6            1 RES     
   29911 H6        -421.6534  -297.4665   610.2103 H6            1 RES     
   29912 H6        -419.7009  -297.4744   611.6327 H6            1 RES     
   29913 H6        -421.0605  -296.5404   612.2140 H6            1 RES     
   29914 H6        -420.0245  -299.0991   613.5634 H6            1 RES     
   29915 H6        -419.9053  -297.3924   614.0705 H6            1 RES     
   29916 H6        -422.4440  -299.0693   613.8004 H6            1 RES     
   29917 H6        -422.4693  -297.2816   614.1091 H6            1 RES     
   29918 H6        -421.3824  -297.5178   616.2747 H6            1 RES     
   29919 H6        -421.0206  -299.2505   615.9797 H6            1 RES     
   29920 H6        -422.9446  -299.0989   617.4996 H6            1 RES     
   29921 H6        -423.3488  -299.8784   615.9482 H6            1 RES     
   29922 H6        -425.2113  -298.4920   616.5625 H6            1 RES     
   29923 H6        -424.4514  -297.7968   615.1243 H6            1 RES     
   29924 H6        -423.3329  -296.0432   616.5334 H6            1 RES     
   29925 H6        -425.1209  -296.0223   616.6574 H6            1 RES     
   29926 H6        -423.1830  -297.1903   618.7648 H6            1 RES     
   29927 H6        -424.0744  -295.6371   618.8472 H6            1 RES     
   29928 H6        -426.2623  -296.8623   618.8274 H6            1 RES     
   29929 H6        -425.3725  -298.4402   618.8060 H6            1 RES     
   29930 H6        -425.2097  -297.3425   620.2114 H6            1 RES     
   29931 C0        -433.4460  -308.2030   600.6388 C0            1 RES     
   29932 C0        -432.5916  -308.9766   602.0854 C0            1 RES     
   29933 C0        -433.2216  -308.5609   603.2515 C0            1 RES     
   29934 S1        -432.3976  -308.9082   604.7186 S1            1 RES     
   29935 C0        -431.0190  -309.6741   604.2007 C0            1 RES     
   29936 C0        -431.2752  -309.6741   602.6664 C0            1 RES     
   29937 C0        -434.1194  -307.4280   603.0233 C0            1 RES     
   29938 C0        -433.5237  -307.0455   601.6782 C0            1 RES     
   29939 C0        -432.5779  -306.0770   601.8176 C0            1 RES     
   29940 C0        -432.4705  -305.5238   603.0913 C0            1 RES     
   29941 S1        -433.6618  -306.1387   604.2501 S1            1 RES     
   29942 H2        -430.4672  -310.0388   602.0436 H2            1 RES     
   29943 H2        -431.8164  -305.8797   601.0809 H2            1 RES     
   29944 N3        -429.3978  -309.5857   607.8500 N3            1 RES     
   29945 C0        -430.1349  -309.3964   606.7449 C0            1 RES     
   29946 C0        -429.9302  -310.0546   605.4423 C0            1 RES     
   29947 C0        -428.7618  -310.9516   605.5628 C0            1 RES     
   29948 N3        -428.2565  -311.7304   604.5542 N3            1 RES     
   29949 S1        -426.9873  -312.5345   605.2739 S1            1 RES     
   29950 N3        -426.9780  -311.9568   606.8218 N3            1 RES     
   29951 C0        -428.0105  -311.1032   606.8111 C0            1 RES     
   29952 C0        -428.3242  -310.4160   607.9580 C0            1 RES     
   29953 H4        -430.9193  -308.6855   606.8812 H4            1 RES     
   29954 C5        -449.4922  -304.6042   590.3537 C5            1 RES     
   29955 C5        -448.2849  -305.1084   591.1945 C5            1 RES     
   29956 C5        -446.9042  -304.9457   590.4782 C5            1 RES     
   29957 C5        -445.5653  -305.1328   591.3447 C5            1 RES     
   29958 C5        -445.0769  -306.5712   591.8121 C5            1 RES     
   29959 C5        -443.8450  -306.8038   592.9101 C5            1 RES     
   29960 C5        -442.2171  -306.6595   592.6595 C5            1 RES     
   29961 C5        -440.8808  -307.2348   593.6410 C5            1 RES     
   29962 C5        -440.0086  -306.5869   594.9561 C5            1 RES     
   29963 C5        -438.7201  -307.0615   596.1217 C5            1 RES     
   29964 C5        -436.9423  -307.0954   596.2364 C5            1 RES     
   29965 C5        -436.6403  -307.2136   594.6338 C5            1 RES     
   29966 C5        -437.2855  -308.3824   593.7582 C5            1 RES     
   29967 C5        -437.3728  -308.1119   592.1937 C5            1 RES     
   29968 C5        -437.8393  -309.3299   591.3076 C5            1 RES     
   29969 C5        -437.0474  -310.6311   591.5620 C5            1 RES     
   29970 C5        -435.5126  -310.4750   591.4350 C5            1 RES     
   29971 C5        -434.8519  -311.2150   590.2661 C5            1 RES     
   29972 C5        -435.3412  -310.7930   588.8850 C5            1 RES     
   29973 C5        -435.5144  -307.3221   597.5820 C5            1 RES     
   29974 C0        -434.8981  -308.1052   599.2669 C0            1 RES     
   29975 C5        -435.6393  -309.4664   599.2367 C5            1 RES     
   29976 C5        -437.1574  -309.4451   598.7166 C5            1 RES     
   29977 C5        -438.1729  -309.0927   599.8170 C5            1 RES     
   29978 C5        -437.9018  -307.8250   600.6595 C5            1 RES     
   29979 C5        -437.6760  -306.5203   599.8646 C5            1 RES     
   29980 C5        -437.7521  -305.2467   600.6965 C5            1 RES     
   29981 C5        -436.8054  -305.2780   601.8968 C5            1 RES     
   29982 C5        -437.0904  -304.1086   602.8336 C5            1 RES     
   29983 C5        -436.3728  -304.3393   604.1565 C5            1 RES     
   29984 C5        -436.7626  -303.3343   605.2161 C5            1 RES     
   29985 C5        -437.5154  -310.7675   597.9563 C5            1 RES     
   29986 C5        -438.7408  -310.8675   596.9688 C5            1 RES     
   29987 C5        -440.2133  -310.9513   597.4555 C5            1 RES     
   29988 C5        -440.4260  -312.0761   598.4767 C5            1 RES     
   29989 C5        -441.9132  -312.3992   598.7454 C5            1 RES     
   29990 C5        -442.0937  -313.2502   600.0218 C5            1 RES     
   29991 C5        -441.3339  -314.5928   600.0550 C5            1 RES     
   29992 C5        -441.8179  -315.6521   599.0472 C5            1 RES     
   29993 C5        -443.2798  -316.1046   599.2324 C5            1 RES     
   29994 C5        -443.5566  -316.7216   600.6063 C5            1 RES     
   29995 H6        -449.4008  -303.5203   590.1131 H6            1 RES     
   29996 H6        -449.6136  -305.1631   589.4014 H6            1 RES     
   29997 H6        -450.4432  -304.7178   590.9276 H6            1 RES     
   29998 H6        -448.2895  -304.4992   592.1224 H6            1 RES     
   29999 H6        -448.4625  -306.1710   591.4567 H6            1 RES     
   30000 H6        -446.9007  -305.5618   589.5507 H6            1 RES     
   30001 H6        -446.9042  -303.8817   590.1406 H6            1 RES     
   30002 H6        -445.6968  -304.4881   592.2353 H6            1 RES     
   30003 H6        -444.7490  -304.7150   590.7218 H6            1 RES     
   30004 H6        -444.9223  -307.1878   590.8954 H6            1 RES     
   30005 H6        -445.9952  -306.9934   592.2861 H6            1 RES     
   30006 H6        -443.9844  -307.8812   593.1501 H6            1 RES     
   30007 H6        -444.1328  -306.2244   593.8042 H6            1 RES     
   30008 H6        -442.1417  -307.2697   591.7250 H6            1 RES     
   30009 H6        -442.0252  -305.6204   592.3216 H6            1 RES     
   30010 H6        -440.1255  -307.3465   592.8356 H6            1 RES     
   30011 H6        -441.2056  -308.2707   593.8774 H6            1 RES     
   30012 H6        -439.7320  -305.5742   594.5971 H6            1 RES     
   30013 H6        -440.8767  -306.4500   595.6325 H6            1 RES     
   30014 H6        -439.0804  -308.0357   596.4660 H6            1 RES     
   30015 H6        -438.9658  -306.3557   596.9261 H6            1 RES     
   30016 H6        -436.7973  -305.9918   596.2478 H6            1 RES     
   30017 H6        -435.5704  -307.0750   594.3793 H6            1 RES     
   30018 H6        -437.1411  -306.3189   594.1776 H6            1 RES     
   30019 H6        -438.3322  -308.5914   594.0554 H6            1 RES     
   30020 H6        -436.6851  -309.2848   593.9515 H6            1 RES     
   30021 H6        -436.4001  -307.7568   591.8144 H6            1 RES     
   30022 H6        -438.0719  -307.2734   591.9670 H6            1 RES     
   30023 H6        -437.7647  -309.0647   590.2252 H6            1 RES     
   30024 H6        -438.9146  -309.5552   591.4960 H6            1 RES     
   30025 H6        -437.2874  -310.9277   592.6019 H6            1 RES     
   30026 H6        -437.4179  -311.4795   590.9413 H6            1 RES     
   30027 H6        -435.1995  -309.4181   591.4111 H6            1 RES     
   30028 H6        -435.0639  -310.9011   592.3566 H6            1 RES     
   30029 H6        -435.0074  -312.3075   590.3873 H6            1 RES     
   30030 H6        -433.7596  -311.0111   590.3273 H6            1 RES     
   30031 H6        -435.1990  -309.7038   588.7283 H6            1 RES     
   30032 H6        -434.7513  -311.3427   588.1190 H6            1 RES     
   30033 H6        -436.4107  -311.0553   588.7521 H6            1 RES     
   30034 H6        -435.3056  -306.2511   597.8059 H6            1 RES     
   30035 H6        -434.6555  -307.5307   596.9097 H6            1 RES     
   30036 H6        -435.0174  -310.0549   598.5352 H6            1 RES     
   30037 H6        -435.5886  -309.9414   600.2361 H6            1 RES     
   30038 H6        -437.3091  -308.7142   597.9445 H6            1 RES     
   30039 H6        -439.1608  -308.9721   599.3383 H6            1 RES     
   30040 H6        -438.2340  -309.9428   600.5225 H6            1 RES     
   30041 H6        -438.7904  -307.6948   601.3116 H6            1 RES     
   30042 H6        -437.0194  -308.0198   601.3044 H6            1 RES     
   30043 H6        -436.6783  -306.5111   599.4723 H6            1 RES     
   30044 H6        -438.4033  -306.4371   599.0412 H6            1 RES     
   30045 H6        -437.5060  -304.3690   600.0547 H6            1 RES     
   30046 H6        -438.7993  -305.1502   601.0448 H6            1 RES     
   30047 H6        -437.0136  -306.1981   602.4746 H6            1 RES     
   30048 H6        -435.7384  -305.2951   601.5766 H6            1 RES     
   30049 H6        -436.7845  -303.1448   602.3698 H6            1 RES     
   30050 H6        -438.1811  -304.0880   603.0393 H6            1 RES     
   30051 H6        -435.2931  -304.2496   603.9766 H6            1 RES     
   30052 H6        -436.6312  -305.3529   604.5458 H6            1 RES     
   30053 H6        -436.4570  -302.3179   604.8985 H6            1 RES     
   30054 H6        -436.2451  -303.6003   606.1627 H6            1 RES     
   30055 H6        -437.8591  -303.3739   605.3840 H6            1 RES     
   30056 H6        -437.5109  -311.6214   598.6570 H6            1 RES     
   30057 H6        -436.6637  -310.9066   597.2525 H6            1 RES     
   30058 H6        -438.6713  -310.0871   596.1877 H6            1 RES     
   30059 H6        -438.5849  -311.8190   596.4152 H6            1 RES     
   30060 H6        -440.5806  -309.9877   597.8661 H6            1 RES     
   30061 H6        -440.8357  -311.1699   596.5540 H6            1 RES     
   30062 H6        -439.9349  -311.7470   599.4149 H6            1 RES     
   30063 H6        -439.9436  -313.0066   598.1092 H6            1 RES     
   30064 H6        -442.3633  -312.9062   597.8608 H6            1 RES     
   30065 H6        -442.4786  -311.4564   598.9120 H6            1 RES     
   30066 H6        -443.1746  -313.4230   600.2093 H6            1 RES     
   30067 H6        -441.7160  -312.6396   600.8701 H6            1 RES     
   30068 H6        -441.4136  -315.0132   601.0782 H6            1 RES     
   30069 H6        -440.2528  -314.4071   599.8889 H6            1 RES     
   30070 H6        -441.6884  -315.2656   598.0144 H6            1 RES     
   30071 H6        -441.1643  -316.5463   599.1537 H6            1 RES     
   30072 H6        -443.9720  -315.2543   599.0644 H6            1 RES     
   30073 H6        -443.4991  -316.8749   598.4614 H6            1 RES     
   30074 H6        -442.8864  -317.5892   600.7858 H6            1 RES     
   30075 H6        -443.4187  -315.9762   601.4161 H6            1 RES     
   30076 H6        -444.6092  -317.0724   600.6493 H6            1 RES     
   30077 C0        -425.2457  -308.6850   611.7661 C0            1 RES     
   30078 C0        -426.9998  -308.1411   611.9868 C0            1 RES     
   30079 C0        -427.7898  -309.2607   612.2149 C0            1 RES     
   30080 S1        -429.4881  -309.0145   612.1333 S1            1 RES     
   30081 C0        -429.6147  -307.3990   611.7735 C0            1 RES     
   30082 C0        -428.1079  -307.0132   611.7492 C0            1 RES     
   30083 C0        -427.0908  -310.5067   611.8977 C0            1 RES     
   30084 C0        -426.0041  -309.8494   611.0624 C0            1 RES     
   30085 C0        -426.3242  -309.8658   609.7398 C0            1 RES     
   30086 C0        -427.4549  -310.6075   609.4063 C0            1 RES     
   30087 S1        -428.1926  -311.4570   610.7754 S1            1 RES     
   30088 H2        -427.8749  -306.0028   611.4352 H2            1 RES     
   30089 H2        -425.8856  -309.2006   609.0141 H2            1 RES     
   30090 N3        -433.5448  -307.6809   611.1193 N3            1 RES     
   30091 C0        -432.2349  -307.9003   611.3100 C0            1 RES     
   30092 C0        -431.2041  -306.8683   611.5208 C0            1 RES     
   30093 C0        -431.8646  -305.5470   611.4729 C0            1 RES     
   30094 N3        -431.2300  -304.3409   611.6197 N3            1 RES     
   30095 S1        -432.4652  -303.2285   611.5101 S1            1 RES     
   30096 N3        -433.8105  -304.1530   611.2542 N3            1 RES     
   30097 C0        -433.3060  -305.3941   611.2619 C0            1 RES     
   30098 C0        -434.1501  -306.4620   611.0796 C0            1 RES     
   30099 H4        -431.9756  -308.9354   611.2861 H4            1 RES     
   30100 C5        -409.5152  -318.1664   618.0005 C5            1 RES     
   30101 C5        -410.7953  -317.3301   617.7172 C5            1 RES     
   30102 C5        -410.6009  -316.2272   616.6255 C5            1 RES     
   30103 C5        -411.9042  -315.5106   616.0202 C5            1 RES     
   30104 C5        -412.7240  -314.4389   616.8601 C5            1 RES     
   30105 C5        -414.2096  -313.8514   616.3860 C5            1 RES     
   30106 C5        -414.5354  -312.7382   615.2077 C5            1 RES     
   30107 C5        -416.0019  -311.8202   614.9134 C5            1 RES     
   30108 C5        -417.4286  -312.1141   614.0255 C5            1 RES     
   30109 C5        -419.0329  -311.3597   613.7076 C5            1 RES     
   30110 C5        -419.7756  -310.1651   612.6140 C5            1 RES     
   30111 C5        -418.4218  -309.2980   612.3152 C5            1 RES     
   30112 C5        -417.5593  -308.6805   613.5084 C5            1 RES     
   30113 C5        -416.0444  -308.3391   613.1669 C5            1 RES     
   30114 C5        -415.2430  -307.5645   614.2823 C5            1 RES     
   30115 C5        -415.9536  -306.2942   614.7984 C5            1 RES     
   30116 C5        -416.3585  -305.2973   613.6855 C5            1 RES     
   30117 C5        -415.6255  -303.9508   613.6841 C5            1 RES     
   30118 C5        -414.1142  -304.0469   613.5061 C5            1 RES     
   30119 C5        -421.5585  -309.5378   612.0408 C5            1 RES     
   30120 C0        -423.4492  -309.2378   612.4496 C0            1 RES     
   30121 C5        -423.3613  -308.8734   613.9538 C5            1 RES     
   30122 C5        -422.3387  -309.7344   614.8418 C5            1 RES     
   30123 C5        -422.9405  -311.0535   615.3560 C5            1 RES     
   30124 C5        -423.6248  -311.9771   614.3219 C5            1 RES     
   30125 C5        -422.7766  -312.3564   613.0884 C5            1 RES     
   30126 C5        -423.3268  -313.5171   612.2699 C5            1 RES     
   30127 C5        -424.7755  -313.2891   611.8370 C5            1 RES     
   30128 C5        -425.3637  -314.5652   611.2439 C5            1 RES     
   30129 C5        -426.8739  -314.4126   611.1237 C5            1 RES     
   30130 C5        -427.5628  -315.7013   610.7374 C5            1 RES     
   30131 C5        -421.7077  -308.8658   615.9829 C5            1 RES     
   30132 C5        -420.3760  -309.2791   616.7195 C5            1 RES     
   30133 C5        -420.3142  -310.4106   617.7815 C5            1 RES     
   30134 C5        -421.3490  -310.2188   618.8977 C5            1 RES     
   30135 C5        -421.1167  -311.1295   620.1244 C5            1 RES     
   30136 C5        -422.3574  -311.1819   621.0430 C5            1 RES     
   30137 C5        -422.8587  -309.8264   621.5838 C5            1 RES     
   30138 C5        -421.9151  -309.1196   622.5748 C5            1 RES     
   30139 C5        -421.6341  -309.9007   623.8737 C5            1 RES     
   30140 C5        -422.8956  -310.2024   624.6876 C5            1 RES     
   30141 H6        -409.1637  -318.7007   617.0884 H6            1 RES     
   30142 H6        -408.6769  -317.5482   618.3865 H6            1 RES     
   30143 H6        -409.7237  -318.9545   618.7634 H6            1 RES     
   30144 H6        -411.5589  -318.0572   617.3703 H6            1 RES     
   30145 H6        -411.1330  -316.8760   618.6707 H6            1 RES     
   30146 H6        -409.8384  -315.4964   616.9784 H6            1 RES     
   30147 H6        -410.1304  -316.7759   615.7749 H6            1 RES     
   30148 H6        -412.5828  -316.3334   615.7226 H6            1 RES     
   30149 H6        -411.5571  -314.9889   615.1058 H6            1 RES     
   30150 H6        -412.0252  -313.6086   617.1184 H6            1 RES     
   30151 H6        -412.8980  -314.9732   617.8247 H6            1 RES     
   30152 H6        -414.5426  -313.3537   617.3237 H6            1 RES     
   30153 H6        -414.8458  -314.7410   616.2382 H6            1 RES     
   30154 H6        -413.7911  -311.9595   615.5094 H6            1 RES     
   30155 H6        -414.1366  -313.1399   614.2536 H6            1 RES     
   30156 H6        -415.5439  -310.9389   614.4183 H6            1 RES     
   30157 H6        -416.2595  -311.4742   615.9374 H6            1 RES     
   30158 H6        -417.0442  -312.4336   613.0349 H6            1 RES     
   30159 H6        -417.7236  -313.0413   614.5576 H6            1 RES     
   30160 H6        -419.3681  -311.1164   614.7204 H6            1 RES     
   30161 H6        -419.5823  -312.2677   613.4258 H6            1 RES     
   30162 H6        -419.6727  -310.7673   611.6835 H6            1 RES     
   30163 H6        -418.5466  -308.5613   611.4965 H6            1 RES     
   30164 H6        -417.6893  -310.0388   611.8981 H6            1 RES     
   30165 H6        -417.4928  -309.3726   614.3711 H6            1 RES     
   30166 H6        -418.0860  -307.7707   613.8357 H6            1 RES     
   30167 H6        -415.9870  -307.7599   612.2303 H6            1 RES     
   30168 H6        -415.4614  -309.2638   612.9471 H6            1 RES     
   30169 H6        -414.2311  -307.2853   613.9006 H6            1 RES     
   30170 H6        -415.0683  -308.2261   615.1623 H6            1 RES     
   30171 H6        -416.8721  -306.6511   615.3041 H6            1 RES     
   30172 H6        -415.3761  -305.7846   615.6039 H6            1 RES     
   30173 H6        -416.2899  -305.7422   612.6791 H6            1 RES     
   30174 H6        -417.4321  -305.0584   613.8363 H6            1 RES     
   30175 H6        -415.8452  -303.4113   614.6291 H6            1 RES     
   30176 H6        -416.0396  -303.3554   612.8401 H6            1 RES     
   30177 H6        -413.8573  -304.5805   612.5678 H6            1 RES     
   30178 H6        -413.6992  -303.0164   613.4544 H6            1 RES     
   30179 H6        -413.6507  -304.5637   614.3712 H6            1 RES     
   30180 H6        -421.6792  -310.1535   611.1203 H6            1 RES     
   30181 H6        -421.2746  -308.5731   611.5695 H6            1 RES     
   30182 H6        -423.0231  -307.8201   613.9191 H6            1 RES     
   30183 H6        -424.3725  -308.9041   614.4050 H6            1 RES     
   30184 H6        -421.4632  -310.0176   614.2882 H6            1 RES     
   30185 H6        -422.1297  -311.6299   615.8355 H6            1 RES     
   30186 H6        -423.6968  -310.8161   616.1278 H6            1 RES     
   30187 H6        -423.8912  -312.9052   614.8692 H6            1 RES     
   30188 H6        -424.5626  -311.4866   613.9864 H6            1 RES     
   30189 H6        -422.7678  -311.5368   612.3972 H6            1 RES     
   30190 H6        -421.7459  -312.6050   613.3879 H6            1 RES     
   30191 H6        -422.6909  -313.6688   611.3669 H6            1 RES     
   30192 H6        -423.2616  -314.4213   612.9067 H6            1 RES     
   30193 H6        -425.3721  -313.0614   612.7403 H6            1 RES     
   30194 H6        -424.8617  -312.4319   611.1306 H6            1 RES     
   30195 H6        -424.9005  -314.7955   610.2590 H6            1 RES     
   30196 H6        -425.1629  -315.3989   611.9487 H6            1 RES     
   30197 H6        -427.0782  -313.6655   610.3451 H6            1 RES     
   30198 H6        -427.2927  -314.0912   612.1071 H6            1 RES     
   30199 H6        -427.2265  -316.0185   609.7307 H6            1 RES     
   30200 H6        -428.6599  -315.5256   610.7257 H6            1 RES     
   30201 H6        -427.3340  -316.4872   611.4872 H6            1 RES     
   30202 H6        -422.4834  -308.5793   616.7153 H6            1 RES     
   30203 H6        -421.3817  -307.9384   615.4596 H6            1 RES     
   30204 H6        -419.5633  -309.4391   615.9859 H6            1 RES     
   30205 H6        -420.0628  -308.3691   617.2759 H6            1 RES     
   30206 H6        -420.4185  -311.4205   617.3330 H6            1 RES     
   30207 H6        -419.2939  -310.3683   618.2343 H6            1 RES     
   30208 H6        -422.3400  -310.4340   618.4490 H6            1 RES     
   30209 H6        -421.3203  -309.1668   619.2528 H6            1 RES     
   30210 H6        -420.2162  -310.7934   620.6888 H6            1 RES     
   30211 H6        -420.9285  -312.1725   619.7882 H6            1 RES     
   30212 H6        -422.1721  -311.8801   621.8865 H6            1 RES     
   30213 H6        -423.1831  -311.6196   620.4415 H6            1 RES     
   30214 H6        -423.8373  -309.9894   622.0796 H6            1 RES     
   30215 H6        -423.0619  -309.1441   620.7330 H6            1 RES     
   30216 H6        -420.9504  -308.8976   622.0719 H6            1 RES     
   30217 H6        -422.3793  -308.1468   622.8513 H6            1 RES     
   30218 H6        -421.1060  -310.8496   623.6477 H6            1 RES     
   30219 H6        -420.9599  -309.2820   624.5051 H6            1 RES     
   30220 H6        -423.4291  -309.2618   624.9422 H6            1 RES     
   30221 H6        -423.5804  -310.8751   624.1318 H6            1 RES     
   30222 H6        -422.6136  -310.7160   625.6308 H6            1 RES     
   30223 C0        -438.4992  -306.8436   608.2662 C0            1 RES     
   30224 C0        -437.9982  -308.4668   608.9979 C0            1 RES     
   30225 C0        -438.0952  -308.3829   610.3810 C0            1 RES     
   30226 S1        -437.3795  -309.6695   611.2665 S1            1 RES     
   30227 C0        -436.7611  -310.6451   610.0744 C0            1 RES     
   30228 C0        -437.2165  -309.8500   608.8173 C0            1 RES     
   30229 C0        -438.2372  -307.0020   610.8443 C0            1 RES     
   30230 C0        -437.7544  -306.3691   609.5494 C0            1 RES     
   30231 C0        -436.4227  -306.0940   609.6040 C0            1 RES     
   30232 C0        -435.8240  -306.2764   610.8482 C0            1 RES     
   30233 S1        -436.9521  -306.7444   612.1323 S1            1 RES     
   30234 H2        -436.8586  -310.2143   607.8619 H2            1 RES     
   30235 H2        -435.8096  -305.9491   608.7296 H2            1 RES     
   30236 N3        -434.8028  -312.9142   612.7144 N3            1 RES     
   30237 C0        -435.4771  -311.9499   612.0695 C0            1 RES     
   30238 C0        -435.8838  -311.9743   610.6532 C0            1 RES     
   30239 C0        -435.4074  -313.2430   610.0634 C0            1 RES     
   30240 N3        -435.5881  -313.6249   608.7594 N3            1 RES     
   30241 S1        -434.8817  -315.1320   608.6874 S1            1 RES     
   30242 N3        -434.3057  -315.3738   610.2170 N3            1 RES     
   30243 C0        -434.6776  -314.2477   610.8403 C0            1 RES     
   30244 C0        -434.3689  -314.0834   612.1684 C0            1 RES     
   30245 H4        -435.7019  -311.1100   612.6886 H4            1 RES     
   30246 C5        -451.2592  -292.3806   606.2119 C5            1 RES     
   30247 C5        -450.4178  -293.6804   606.3572 C5            1 RES     
   30248 C5        -449.3148  -293.8452   605.2608 C5            1 RES     
   30249 C5        -448.1860  -294.9674   605.4726 C5            1 RES     
   30250 C5        -448.5095  -296.5120   605.2829 C5            1 RES     
   30251 C5        -447.4562  -297.7252   605.7251 C5            1 RES     
   30252 C5        -446.0869  -298.2204   604.9419 C5            1 RES     
   30253 C5        -445.1569  -299.6951   605.1427 C5            1 RES     
   30254 C5        -443.8745  -300.1600   606.1671 C5            1 RES     
   30255 C5        -442.8983  -301.6169   606.5773 C5            1 RES     
   30256 C5        -441.4468  -302.4795   606.0082 C5            1 RES     
   30257 C5        -441.5227  -301.9927   604.4491 C5            1 RES     
   30258 C5        -442.8379  -302.2295   603.5755 C5            1 RES     
   30259 C5        -443.0102  -301.2848   602.3082 C5            1 RES     
   30260 C5        -444.2084  -301.6342   601.3446 C5            1 RES     
   30261 C5        -444.2421  -303.1111   600.8945 C5            1 RES     
   30262 C5        -442.9224  -303.6109   600.2583 C5            1 RES     
   30263 C5        -442.9804  -303.9599   598.7665 C5            1 RES     
   30264 C5        -443.3676  -302.8011   597.8543 C5            1 RES     
   30265 C5        -440.1905  -303.8849   606.5977 C5            1 RES     
   30266 C0        -439.8510  -305.5162   607.6250 C0            1 RES     
   30267 C5        -441.2157  -306.2363   607.4759 C5            1 RES     
   30268 C5        -442.5271  -305.3181   607.5874 C5            1 RES     
   30269 C5        -442.9848  -305.0840   609.0374 C5            1 RES     
   30270 C5        -441.9255  -304.5902   610.0496 C5            1 RES     
   30271 C5        -441.1454  -303.3199   609.6464 C5            1 RES     
   30272 C5        -440.3682  -302.6634   610.7799 C5            1 RES     
   30273 C5        -439.4198  -303.6394   611.4771 C5            1 RES     
   30274 C5        -438.8542  -303.0184   612.7502 C5            1 RES     
   30275 C5        -438.1838  -304.1032   613.5822 C5            1 RES     
   30276 C5        -437.7752  -303.6187   614.9544 C5            1 RES     
   30277 C5        -443.6745  -305.8527   606.6641 C5            1 RES     
   30278 C5        -444.8891  -304.9506   606.2195 C5            1 RES     
   30279 C5        -446.0601  -304.5818   607.1707 C5            1 RES     
   30280 C5        -446.6935  -305.8184   607.8212 C5            1 RES     
   30281 C5        -448.0441  -305.5328   608.5159 C5            1 RES     
   30282 C5        -448.4586  -306.6836   609.4592 C5            1 RES     
   30283 C5        -448.5769  -308.0803   608.8140 C5            1 RES     
   30284 C5        -449.7209  -308.2442   607.7960 C5            1 RES     
   30285 C5        -451.1360  -308.0335   608.3699 C5            1 RES     
   30286 C5        -451.4838  -309.0027   609.5033 C5            1 RES     
   30287 H6        -450.6224  -291.4694   606.2825 H6            1 RES     
   30288 H6        -451.8209  -292.3393   605.2543 H6            1 RES     
   30289 H6        -452.0068  -292.3042   607.0376 H6            1 RES     
   30290 H6        -449.9351  -293.6161   607.3547 H6            1 RES     
   30291 H6        -451.1098  -294.5467   606.3438 H6            1 RES     
   30292 H6        -449.8022  -293.9147   604.2620 H6            1 RES     
   30293 H6        -448.7792  -292.8659   605.2741 H6            1 RES     
   30294 H6        -447.7932  -294.8027   606.4946 H6            1 RES     
   30295 H6        -447.3877  -294.7255   604.7425 H6            1 RES     
   30296 H6        -448.8720  -296.6533   604.2374 H6            1 RES     
   30297 H6        -449.4175  -296.6460   605.9183 H6            1 RES     
   30298 H6        -448.1288  -298.6101   605.6737 H6            1 RES     
   30299 H6        -447.2267  -297.5440   606.7893 H6            1 RES     
   30300 H6        -446.5134  -298.3139   603.9120 H6            1 RES     
   30301 H6        -445.4084  -297.3452   604.8765 H6            1 RES     
   30302 H6        -444.7311  -299.7578   604.1197 H6            1 RES     
   30303 H6        -445.9585  -300.4642   605.1690 H6            1 RES     
   30304 H6        -443.1449  -299.3333   606.0438 H6            1 RES     
   30305 H6        -444.3992  -299.9704   607.1256 H6            1 RES     
   30306 H6        -443.6774  -302.3701   606.7298 H6            1 RES     
   30307 H6        -442.5788  -301.3159   607.5837 H6            1 RES     
   30308 H6        -440.7148  -301.6885   606.2869 H6            1 RES     
   30309 H6        -440.6128  -302.2441   603.8681 H6            1 RES     
   30310 H6        -441.5089  -300.8715   604.4945 H6            1 RES     
   30311 H6        -443.7609  -302.0622   604.1651 H6            1 RES     
   30312 H6        -442.8167  -303.2840   603.2593 H6            1 RES     
   30313 H6        -442.0797  -301.2691   601.7165 H6            1 RES     
   30314 H6        -443.1527  -300.2218   602.6130 H6            1 RES     
   30315 H6        -444.1740  -300.9794   600.4404 H6            1 RES     
   30316 H6        -445.1813  -301.4186   601.8441 H6            1 RES     
   30317 H6        -444.4357  -303.6984   601.8135 H6            1 RES     
   30318 H6        -445.1144  -303.3328   600.2373 H6            1 RES     
   30319 H6        -442.0847  -302.9149   600.4298 H6            1 RES     
   30320 H6        -442.6443  -304.5507   600.7795 H6            1 RES     
   30321 H6        -443.6936  -304.7965   598.6119 H6            1 RES     
   30322 H6        -441.9655  -304.3106   598.4745 H6            1 RES     
   30323 H6        -442.6729  -301.9453   597.9816 H6            1 RES     
   30324 H6        -443.3134  -303.1496   596.7996 H6            1 RES     
   30325 H6        -444.4078  -302.4741   598.0578 H6            1 RES     
   30326 H6        -439.3903  -303.2419   607.0303 H6            1 RES     
   30327 H6        -439.7124  -304.1280   605.6253 H6            1 RES     
   30328 H6        -441.1464  -306.6579   606.4548 H6            1 RES     
   30329 H6        -441.2772  -307.0731   608.1991 H6            1 RES     
   30330 H6        -442.3697  -304.3384   607.1769 H6            1 RES     
   30331 H6        -443.8015  -304.3410   609.0176 H6            1 RES     
   30332 H6        -443.3927  -306.0332   609.4335 H6            1 RES     
   30333 H6        -442.4745  -304.3861   610.9923 H6            1 RES     
   30334 H6        -441.2093  -305.4184   610.2334 H6            1 RES     
   30335 H6        -440.3884  -303.5790   608.9328 H6            1 RES     
   30336 H6        -441.8253  -302.5678   609.2150 H6            1 RES     
   30337 H6        -439.7836  -301.8027   610.3793 H6            1 RES     
   30338 H6        -441.1141  -302.2804   611.5039 H6            1 RES     
   30339 H6        -440.0072  -304.5214   611.7948 H6            1 RES     
   30340 H6        -438.6092  -303.9816   610.7936 H6            1 RES     
   30341 H6        -438.1445  -302.1963   612.5095 H6            1 RES     
   30342 H6        -439.7005  -302.6121   613.3425 H6            1 RES     
   30343 H6        -437.2811  -304.4301   613.0490 H6            1 RES     
   30344 H6        -438.8943  -304.9521   613.7251 H6            1 RES     
   30345 H6        -437.0132  -302.8203   614.8581 H6            1 RES     
   30346 H6        -437.3482  -304.4753   615.5188 H6            1 RES     
   30347 H6        -438.6657  -303.2399   615.4981 H6            1 RES     
   30348 H6        -444.0317  -306.8317   607.0303 H6            1 RES     
   30349 H6        -443.1688  -306.0244   605.6868 H6            1 RES     
   30350 H6        -444.5250  -304.0259   605.7333 H6            1 RES     
   30351 H6        -445.3779  -305.5149   605.3958 H6            1 RES     
   30352 H6        -445.7601  -303.8511   607.9506 H6            1 RES     
   30353 H6        -446.8342  -304.0766   606.5435 H6            1 RES     
   30354 H6        -445.9595  -306.1958   608.5618 H6            1 RES     
   30355 H6        -446.8742  -306.5932   607.0462 H6            1 RES     
   30356 H6        -448.8346  -305.3360   607.7552 H6            1 RES     
   30357 H6        -447.9566  -304.6223   609.1481 H6            1 RES     
   30358 H6        -449.4070  -306.4243   609.9753 H6            1 RES     
   30359 H6        -447.6755  -306.7515   610.2449 H6            1 RES     
   30360 H6        -448.7109  -308.8275   609.6225 H6            1 RES     
   30361 H6        -447.6176  -308.3392   608.3204 H6            1 RES     
   30362 H6        -449.5666  -307.5411   606.9506 H6            1 RES     
   30363 H6        -449.6657  -309.2771   607.3859 H6            1 RES     
   30364 H6        -451.2570  -306.9904   608.7274 H6            1 RES     
   30365 H6        -451.8658  -308.1943   607.5468 H6            1 RES     
   30366 H6        -451.3885  -310.0547   609.1591 H6            1 RES     
   30367 H6        -450.8281  -308.8427   610.3835 H6            1 RES     
   30368 H6        -452.5310  -308.8303   609.8296 H6            1 RES     
   30369 C0        -430.2844  -315.7865   614.8871 C0            1 RES     
   30370 C0        -431.3802  -314.6860   615.8919 C0            1 RES     
   30371 C0        -432.6094  -315.3111   616.0592 C0            1 RES     
   30372 S1        -433.8731  -314.3328   616.6899 S1            1 RES     
   30373 C0        -433.1387  -312.8580   616.8918 C0            1 RES     
   30374 C0        -431.6981  -313.2119   616.4236 C0            1 RES     
   30375 C0        -432.7800  -316.4499   615.1561 C0            1 RES     
   30376 C0        -431.6622  -316.0463   614.2084 C0            1 RES     
   30377 C0        -432.1447  -315.3298   613.1568 C0            1 RES     
   30378 C0        -433.5328  -315.2603   613.0661 C0            1 RES     
   30379 S1        -434.3867  -316.2051   614.2984 S1            1 RES     
   30380 H2        -430.9982  -312.3878   616.3555 H2            1 RES     
   30381 H2        -431.5342  -314.6826   612.5487 H2            1 RES     
   30382 N3        -436.6097  -311.0511   617.6923 N3            1 RES     
   30383 C0        -435.6309  -311.8854   617.3098 C0            1 RES     
   30384 C0        -434.1831  -311.6301   617.4143 C0            1 RES     
   30385 C0        -433.9979  -310.2873   618.0034 C0            1 RES     
   30386 N3        -432.7875  -309.6928   618.2495 N3            1 RES     
   30387 S1        -433.1974  -308.2316   618.9367 S1            1 RES     
   30388 N3        -434.8496  -308.2443   618.9406 N3            1 RES     
   30389 C0        -435.1243  -309.4378   618.3974 C0            1 RES     
   30390 C0        -436.4348  -309.8162   618.2382 C0            1 RES     
   30391 H4        -435.9967  -312.7960   616.8900 H4            1 RES     
   30392 C5        -421.6925  -332.8943   611.7701 C5            1 RES     
   30393 C5        -422.3200  -331.5512   612.2401 C5            1 RES     
   30394 C5        -421.7249  -330.2923   611.5280 C5            1 RES     
   30395 C5        -422.4892  -328.8892   611.6878 C5            1 RES     
   30396 C5        -422.4301  -328.0652   613.0457 C5            1 RES     
   30397 C5        -423.3938  -326.7404   613.3511 C5            1 RES     
   30398 C5        -423.2317  -325.2053   612.7589 C5            1 RES     
   30399 C5        -423.9679  -323.7114   613.3123 C5            1 RES     
   30400 C5        -425.4384  -322.9157   612.9736 C5            1 RES     
   30401 C5        -426.3815  -321.4779   613.5096 C5            1 RES     
   30402 C5        -426.5013  -319.7328   613.1706 C5            1 RES     
   30403 C5        -424.9630  -319.5222   612.6580 C5            1 RES     
   30404 C5        -423.7249  -319.9522   613.5697 C5            1 RES     
   30405 C5        -422.3531  -320.2034   612.8059 C5            1 RES     
   30406 C5        -421.0904  -320.4494   613.7177 C5            1 RES     
   30407 C5        -420.8838  -319.3748   614.8075 C5            1 RES     
   30408 C5        -420.8404  -317.9244   614.2684 C5            1 RES     
   30409 C5        -419.4956  -317.1982   614.3883 C5            1 RES     
   30410 C5        -418.3431  -317.8615   613.6421 C5            1 RES     
   30411 C5        -427.7017  -318.2017   613.5108 C5            1 RES     
   30412 C0        -429.0140  -317.3146   614.6609 C0            1 RES     
   30413 C5        -428.4990  -317.7380   616.0604 C5            1 RES     
   30414 C5        -427.9986  -319.2553   616.2118 C5            1 RES     
   30415 C5        -429.1389  -320.2461   616.5030 C5            1 RES     
   30416 C5        -430.3755  -320.2041   615.5759 C5            1 RES     
   30417 C5        -430.0908  -320.3260   614.0629 C5            1 RES     
   30418 C5        -431.3148  -320.6239   613.2068 C5            1 RES     
   30419 C5        -432.4410  -319.6140   613.4298 C5            1 RES     
   30420 C5        -433.7239  -320.0851   612.7527 C5            1 RES     
   30421 C5        -434.8920  -319.2457   613.2522 C5            1 RES     
   30422 C5        -436.2309  -319.7742   612.7910 C5            1 RES     
   30423 C5        -426.8188  -319.3642   617.2369 C5            1 RES     
   30424 C5        -425.8421  -320.6019   617.2707 C5            1 RES     
   30425 C5        -426.2485  -321.9830   617.8532 C5            1 RES     
   30426 C5        -426.8083  -321.8726   619.2772 C5            1 RES     
   30427 C5        -426.9267  -323.2302   620.0061 C5            1 RES     
   30428 C5        -427.8218  -323.1313   621.2611 C5            1 RES     
   30429 C5        -427.3931  -322.0939   622.3199 C5            1 RES     
   30430 C5        -426.0717  -322.4002   623.0494 C5            1 RES     
   30431 C5        -426.0669  -323.7104   623.8616 C5            1 RES     
   30432 C5        -427.1339  -323.7501   624.9592 C5            1 RES     
   30433 H6        -421.8479  -333.0606   610.6796 H6            1 RES     
   30434 H6        -420.6033  -332.9543   611.9796 H6            1 RES     
   30435 H6        -422.1773  -333.7555   612.2896 H6            1 RES     
   30436 H6        -423.4022  -331.6266   612.0055 H6            1 RES     
   30437 H6        -422.1911  -331.4720   613.3385 H6            1 RES     
   30438 H6        -420.6405  -330.2164   611.7694 H6            1 RES     
   30439 H6        -421.7812  -330.5498   610.4433 H6            1 RES     
   30440 H6        -423.5472  -329.0985   611.4372 H6            1 RES     
   30441 H6        -422.0631  -328.2295   610.9055 H6            1 RES     
   30442 H6        -421.3576  -327.8415   613.2564 H6            1 RES     
   30443 H6        -422.7136  -328.8335   613.8043 H6            1 RES     
   30444 H6        -423.2395  -326.6224   614.4466 H6            1 RES     
   30445 H6        -424.4301  -327.0872   613.1972 H6            1 RES     
   30446 H6        -422.1439  -325.0612   612.9759 H6            1 RES     
   30447 H6        -423.2817  -325.2705   611.6526 H6            1 RES     
   30448 H6        -423.1847  -323.0067   612.9633 H6            1 RES     
   30449 H6        -423.8222  -323.7831   614.4115 H6            1 RES     
   30450 H6        -425.4604  -322.8941   611.8645 H6            1 RES     
   30451 H6        -426.1079  -323.7445   613.2813 H6            1 RES     
   30452 H6        -426.3579  -321.5904   614.5978 H6            1 RES     
   30453 H6        -427.3787  -321.8176   613.2001 H6            1 RES     
   30454 H6        -426.9003  -319.8340   612.1365 H6            1 RES     
   30455 H6        -424.7877  -318.5290   612.1980 H6            1 RES     
   30456 H6        -424.8421  -320.2376   611.8019 H6            1 RES     
   30457 H6        -423.9158  -320.9043   614.1031 H6            1 RES     
   30458 H6        -423.5982  -319.1560   614.3196 H6            1 RES     
   30459 H6        -422.1354  -319.3610   612.1284 H6            1 RES     
   30460 H6        -422.4248  -321.0838   612.1255 H6            1 RES     
   30461 H6        -420.1704  -320.5090   613.0870 H6            1 RES     
   30462 H6        -421.1733  -321.4333   614.2351 H6            1 RES     
   30463 H6        -421.7507  -319.4721   615.4901 H6            1 RES     
   30464 H6        -420.0005  -319.5908   615.4518 H6            1 RES     
   30465 H6        -421.1924  -317.8542   613.2258 H6            1 RES     
   30466 H6        -421.5607  -317.3312   614.8697 H6            1 RES     
   30467 H6        -419.2245  -317.1006   615.4604 H6            1 RES     
   30468 H6        -419.6392  -316.1761   613.9722 H6            1 RES     
   30469 H6        -418.5796  -317.9738   612.5639 H6            1 RES     
   30470 H6        -417.4413  -317.2187   613.7435 H6            1 RES     
   30471 H6        -418.1123  -318.8534   614.0814 H6            1 RES     
   30472 H6        -428.2891  -318.2191   612.5645 H6            1 RES     
   30473 H6        -427.0107  -317.3658   613.2719 H6            1 RES     
   30474 H6        -427.6444  -317.0510   616.2120 H6            1 RES     
   30475 H6        -429.2695  -317.5158   616.8246 H6            1 RES     
   30476 H6        -427.5293  -319.6166   615.3160 H6            1 RES     
   30477 H6        -428.7192  -321.2666   616.4560 H6            1 RES     
   30478 H6        -429.5012  -320.0701   617.5334 H6            1 RES     
   30479 H6        -431.0197  -321.0530   615.8860 H6            1 RES     
   30480 H6        -430.9234  -319.2585   615.7717 H6            1 RES     
   30481 H6        -429.7402  -319.3840   613.6900 H6            1 RES     
   30482 H6        -429.3388  -321.1082   613.8716 H6            1 RES     
   30483 H6        -431.0243  -320.6216   612.1304 H6            1 RES     
   30484 H6        -431.6606  -321.6404   613.4796 H6            1 RES     
   30485 H6        -432.6572  -319.5745   614.5141 H6            1 RES     
   30486 H6        -432.1496  -318.5938   613.0897 H6            1 RES     
   30487 H6        -433.6312  -320.0314   611.6454 H6            1 RES     
   30488 H6        -433.9090  -321.1368   613.0557 H6            1 RES     
   30489 H6        -434.7696  -318.2272   612.8601 H6            1 RES     
   30490 H6        -434.8982  -319.2474   614.3683 H6            1 RES     
   30491 H6        -436.2935  -319.7225   611.6862 H6            1 RES     
   30492 H6        -437.0314  -319.1475   613.2395 H6            1 RES     
   30493 H6        -436.3594  -320.8210   613.1372 H6            1 RES     
   30494 H6        -427.1761  -319.1238   618.2541 H6            1 RES     
   30495 H6        -426.1224  -318.5528   616.9256 H6            1 RES     
   30496 H6        -425.3847  -320.7594   616.2757 H6            1 RES     
   30497 H6        -424.9927  -320.2782   617.9108 H6            1 RES     
   30498 H6        -426.9655  -322.5247   617.2016 H6            1 RES     
   30499 H6        -425.3192  -322.6019   617.8857 H6            1 RES     
   30500 H6        -427.8090  -321.4032   619.1870 H6            1 RES     
   30501 H6        -426.1449  -321.2232   619.8870 H6            1 RES     
   30502 H6        -425.9144  -323.6167   620.2673 H6            1 RES     
   30503 H6        -427.4050  -323.9767   619.3352 H6            1 RES     
   30504 H6        -427.9221  -324.1321   621.7317 H6            1 RES     
   30505 H6        -428.8351  -322.8404   620.9097 H6            1 RES     
   30506 H6        -428.2032  -322.0091   623.0726 H6            1 RES     
   30507 H6        -427.3173  -321.0942   621.8449 H6            1 RES     
   30508 H6        -425.2415  -322.4297   622.3128 H6            1 RES     
   30509 H6        -425.8673  -321.5599   623.7497 H6            1 RES     
   30510 H6        -426.1978  -324.5827   623.1890 H6            1 RES     
   30511 H6        -425.0720  -323.8066   624.3484 H6            1 RES     
   30512 H6        -427.0074  -322.8946   625.6565 H6            1 RES     
   30513 H6        -428.1552  -323.7249   624.5271 H6            1 RES     
   30514 H6        -427.0370  -324.6941   625.5357 H6            1 RES     
   30515 C0        -440.6495  -306.9424   617.2622 C0            1 RES     
   30516 C0        -441.0227  -308.7539   617.2467 C0            1 RES     
   30517 C0        -440.8337  -309.2604   618.5263 C0            1 RES     
   30518 S1        -440.8203  -310.9728   618.6650 S1            1 RES     
   30519 C0        -441.0471  -311.4764   617.0997 C0            1 RES     
   30520 C0        -441.1800  -310.0969   616.3932 C0            1 RES     
   30521 C0        -440.1099  -308.3274   619.3908 C0            1 RES     
   30522 C0        -439.5724  -307.4718   618.2551 C0            1 RES     
   30523 C0        -438.3236  -307.8698   617.8891 C0            1 RES     
   30524 C0        -437.7362  -308.8294   618.7101 C0            1 RES     
   30525 S1        -438.7110  -309.2667   620.1239 S1            1 RES     
   30526 H2        -441.2428  -310.1142   615.3118 H2            1 RES     
   30527 H2        -437.8827  -307.6391   616.9332 H2            1 RES     
   30528 N3        -440.2821  -315.2831   618.0363 N3            1 RES     
   30529 C0        -440.4018  -313.9471   618.0000 C0            1 RES     
   30530 C0        -440.9746  -313.1571   616.8956 C0            1 RES     
   30531 C0        -441.3833  -314.0941   615.8283 C0            1 RES     
   30532 N3        -441.9517  -313.7323   614.6345 N3            1 RES     
   30533 S1        -442.2217  -315.1868   613.8684 S1            1 RES     
   30534 N3        -441.6399  -316.3096   614.9319 N3            1 RES     
   30535 C0        -441.2195  -315.5448   615.9484 C0            1 RES     
   30536 C0        -440.6634  -316.1433   617.0523 C0            1 RES     
   30537 H4        -440.0205  -313.4684   618.8745 H4            1 RES     
   30538 C5        -443.3837  -289.1219   624.4156 C5            1 RES     
   30539 C5        -443.3937  -290.5712   623.8515 C5            1 RES     
   30540 C5        -442.7600  -290.6994   622.4274 C5            1 RES     
   30541 C5        -442.4262  -292.1667   621.8670 C5            1 RES     
   30542 C5        -443.5769  -293.1432   621.3687 C5            1 RES     
   30543 C5        -443.3183  -294.7506   621.0129 C5            1 RES     
   30544 C5        -442.6000  -295.3932   619.6694 C5            1 RES     
   30545 C5        -442.6257  -297.0425   619.0702 C5            1 RES     
   30546 C5        -441.6717  -298.4264   619.3610 C5            1 RES     
   30547 C5        -441.6162  -300.1754   618.9343 C5            1 RES     
   30548 C5        -441.0000  -301.2358   617.6418 C5            1 RES     
   30549 C5        -441.0422  -300.1299   616.4381 C5            1 RES     
   30550 C5        -442.3877  -299.3454   616.0874 C5            1 RES     
   30551 C5        -442.2081  -297.9697   615.3104 C5            1 RES     
   30552 C5        -443.5349  -297.2845   614.8041 C5            1 RES     
   30553 C5        -444.4533  -298.2207   613.9884 C5            1 RES     
   30554 C5        -443.7545  -298.9102   612.7916 C5            1 RES     
   30555 C5        -444.2345  -298.4936   611.3964 C5            1 RES     
   30556 C5        -444.0547  -297.0140   611.0749 C5            1 RES     
   30557 C5        -440.6585  -303.1480   617.2842 C5            1 RES     
   30558 C0        -441.1206  -305.0258   617.5868 C0            1 RES     
   30559 C5        -442.6583  -304.9181   617.7518 C5            1 RES     
   30560 C5        -443.2025  -303.6728   618.6054 C5            1 RES     
   30561 C5        -443.2140  -303.9327   620.1216 C5            1 RES     
   30562 C5        -441.9128  -304.4656   620.7646 C5            1 RES     
   30563 C5        -440.6363  -303.6408   620.4908 C5            1 RES     
   30564 C5        -439.4558  -303.9763   621.3929 C5            1 RES     
   30565 C5        -439.1104  -305.4656   621.3701 C5            1 RES     
   30566 C5        -438.1001  -305.7973   622.4635 C5            1 RES     
   30567 C5        -438.0205  -307.3086   622.6309 C5            1 RES     
   30568 C5        -437.1981  -307.7214   623.8300 C5            1 RES     
   30569 C5        -444.5840  -303.1723   618.0615 C5            1 RES     
   30570 C5        -445.1473  -301.7352   618.3843 C5            1 RES     
   30571 C5        -445.7467  -301.3534   619.7652 C5            1 RES     
   30572 C5        -446.8452  -302.3265   620.2124 C5            1 RES     
   30573 C5        -447.6785  -301.8161   621.4097 C5            1 RES     
   30574 C5        -448.5036  -302.9493   622.0587 C5            1 RES     
   30575 C5        -449.4779  -303.6988   621.1259 C5            1 RES     
   30576 C5        -450.6663  -302.8688   620.6057 C5            1 RES     
   30577 C5        -451.6133  -302.3347   621.6986 C5            1 RES     
   30578 C5        -452.2528  -303.4402   622.5434 C5            1 RES     
   30579 H6        -442.3472  -288.7244   624.5076 H6            1 RES     
   30580 H6        -443.9731  -288.4161   623.7924 H6            1 RES     
   30581 H6        -443.8195  -289.0992   625.4433 H6            1 RES     
   30582 H6        -442.8038  -291.1776   624.5701 H6            1 RES     
   30583 H6        -444.4412  -290.9347   623.8436 H6            1 RES     
   30584 H6        -443.3568  -290.0944   621.7079 H6            1 RES     
   30585 H6        -441.7776  -290.1786   622.5264 H6            1 RES     
   30586 H6        -441.8502  -292.6660   622.6701 H6            1 RES     
   30587 H6        -441.7571  -292.0062   620.9979 H6            1 RES     
   30588 H6        -444.1190  -292.6286   620.5406 H6            1 RES     
   30589 H6        -444.2909  -293.1291   622.2268 H6            1 RES     
   30590 H6        -444.3662  -295.1203   620.9588 H6            1 RES     
   30591 H6        -442.8597  -295.1837   621.9185 H6            1 RES     
   30592 H6        -443.1653  -294.8199   618.8928 H6            1 RES     
   30593 H6        -441.5711  -294.9816   619.6155 H6            1 RES     
   30594 H6        -442.4767  -296.8247   617.9922 H6            1 RES     
   30595 H6        -443.7024  -297.2995   619.1663 H6            1 RES     
   30596 H6        -440.6373  -298.0496   619.2230 H6            1 RES     
   30597 H6        -441.8414  -298.4729   620.4560 H6            1 RES     
   30598 H6        -442.6454  -300.4861   619.1380 H6            1 RES     
   30599 H6        -441.0269  -300.5292   619.7906 H6            1 RES     
   30600 H6        -439.9191  -301.0665   617.8467 H6            1 RES     
   30601 H6        -440.5317  -300.4695   615.5147 H6            1 RES     
   30602 H6        -440.4022  -299.2824   616.8005 H6            1 RES     
   30603 H6        -442.9544  -299.0693   616.9987 H6            1 RES     
   30604 H6        -443.0057  -300.0359   615.4928 H6            1 RES     
   30605 H6        -441.5344  -298.1054   614.4480 H6            1 RES     
   30606 H6        -441.6864  -297.2138   615.9425 H6            1 RES     
   30607 H6        -443.2889  -296.3875   614.1857 H6            1 RES     
   30608 H6        -444.1299  -296.9088   615.6686 H6            1 RES     
   30609 H6        -444.7895  -299.0013   614.6986 H6            1 RES     
   30610 H6        -445.3940  -297.7160   613.6683 H6            1 RES     
   30611 H6        -442.6570  -298.8140   612.8350 H6            1 RES     
   30612 H6        -443.9647  -299.9972   612.8731 H6            1 RES     
   30613 H6        -445.3055  -298.7619   611.2806 H6            1 RES     
   30614 H6        -443.6469  -299.0853   610.6597 H6            1 RES     
   30615 H6        -442.9926  -296.7105   611.1791 H6            1 RES     
   30616 H6        -444.3728  -296.8408   610.0234 H6            1 RES     
   30617 H6        -444.6904  -296.3902   611.7360 H6            1 RES     
   30618 H6        -439.5792  -303.1925   617.5562 H6            1 RES     
   30619 H6        -440.5587  -303.1164   616.1786 H6            1 RES     
   30620 H6        -442.9992  -304.8234   616.7030 H6            1 RES     
   30621 H6        -443.0564  -305.8645   618.1676 H6            1 RES     
   30622 H6        -442.5967  -302.7963   618.4714 H6            1 RES     
   30623 H6        -443.4724  -302.9841   620.6245 H6            1 RES     
   30624 H6        -444.0097  -304.6683   620.3449 H6            1 RES     
   30625 H6        -442.0969  -304.4830   621.8590 H6            1 RES     
   30626 H6        -441.7575  -305.5090   620.4187 H6            1 RES     
   30627 H6        -440.2760  -303.8600   619.5050 H6            1 RES     
   30628 H6        -440.8439  -302.5627   620.5828 H6            1 RES     
   30629 H6        -438.5656  -303.3856   621.0743 H6            1 RES     
   30630 H6        -439.7366  -303.6702   622.4199 H6            1 RES     
   30631 H6        -440.0281  -306.0348   621.6105 H6            1 RES     
   30632 H6        -438.7477  -305.7866   620.3667 H6            1 RES     
   30633 H6        -437.1034  -305.3631   622.2280 H6            1 RES     
   30634 H6        -438.4711  -305.3702   623.4185 H6            1 RES     
   30635 H6        -437.5499  -307.7251   621.7302 H6            1 RES     
   30636 H6        -439.0483  -307.7199   622.7727 H6            1 RES     
   30637 H6        -436.1486  -307.3929   623.6954 H6            1 RES     
   30638 H6        -437.2337  -308.8284   623.9186 H6            1 RES     
   30639 H6        -437.6283  -307.2745   624.7505 H6            1 RES     
   30640 H6        -445.3597  -303.9403   618.2309 H6            1 RES     
   30641 H6        -444.4230  -303.0951   616.9622 H6            1 RES     
   30642 H6        -444.4153  -300.9593   618.0908 H6            1 RES     
   30643 H6        -445.9914  -301.5930   617.6749 H6            1 RES     
   30644 H6        -444.9716  -301.2630   620.5546 H6            1 RES     
   30645 H6        -446.1995  -300.3390   619.6475 H6            1 RES     
   30646 H6        -446.3361  -303.2740   620.4823 H6            1 RES     
   30647 H6        -447.5465  -302.5062   619.3701 H6            1 RES     
   30648 H6        -448.3370  -300.9755   621.0903 H6            1 RES     
   30649 H6        -447.0010  -301.4262   622.2003 H6            1 RES     
   30650 H6        -449.0517  -302.5576   622.9416 H6            1 RES     
   30651 H6        -447.7758  -303.6973   622.4405 H6            1 RES     
   30652 H6        -449.8718  -304.5813   621.6700 H6            1 RES     
   30653 H6        -448.9171  -304.1049   620.2590 H6            1 RES     
   30654 H6        -450.2862  -302.0133   620.0087 H6            1 RES     
   30655 H6        -451.2596  -303.5159   619.9219 H6            1 RES     
   30656 H6        -451.0766  -301.6272   622.3632 H6            1 RES     
   30657 H6        -452.4304  -301.7719   621.1971 H6            1 RES     
   30658 H6        -452.8133  -304.1492   621.8973 H6            1 RES     
   30659 H6        -451.4874  -303.9963   623.1224 H6            1 RES     
   30660 H6        -452.9602  -302.9884   623.2702 H6            1 RES     
   30661 C0        -437.8355  -320.4829   617.4341 C0            1 RES     
   30662 C0        -437.9593  -319.5879   619.0480 C0            1 RES     
   30663 C0        -439.2829  -319.6065   619.4693 C0            1 RES     
   30664 S1        -439.6715  -318.5663   620.7802 S1            1 RES     
   30665 C0        -438.2219  -317.8309   621.1164 C0            1 RES     
   30666 C0        -437.3166  -318.5349   620.0653 C0            1 RES     
   30667 C0        -440.1983  -320.0173   618.4040 C0            1 RES     
   30668 C0        -439.2136  -319.7752   617.2715 C0            1 RES     
   30669 C0        -439.3792  -318.5363   616.7333 C0            1 RES     
   30670 C0        -440.4889  -317.8288   617.1891 C0            1 RES     
   30671 S1        -441.5123  -318.7357   618.3163 S1            1 RES     
   30672 H2        -436.2990  -318.1715   619.9862 H2            1 RES     
   30673 H2        -438.6193  -318.0312   616.1597 H2            1 RES     
   30674 N3        -439.9268  -315.2455   623.6387 N3            1 RES     
   30675 C0        -439.6512  -316.1580   622.6944 C0            1 RES     
   30676 C0        -438.3105  -316.6449   622.3235 C0            1 RES     
   30677 C0        -437.3205  -315.9420   623.1662 C0            1 RES     
   30678 N3        -435.9629  -316.1227   623.1073 N3            1 RES     
   30679 S1        -435.3775  -315.1082   624.2920 S1            1 RES     
   30680 N3        -436.7333  -314.3901   624.9053 N3            1 RES     
   30681 C0        -437.7063  -314.9576   624.1799 C0            1 RES     
   30682 C0        -439.0120  -314.6029   624.4157 C0            1 RES     
   30683 H4        -440.5220  -316.5196   622.1942 H4            1 RES     
   30684 C5        -440.8009  -336.2253   606.4980 C5            1 RES     
   30685 C5        -440.4934  -335.1103   607.5376 C5            1 RES     
   30686 C5        -439.4238  -334.0755   607.0569 C5            1 RES     
   30687 C5        -439.2447  -332.7155   607.8915 C5            1 RES     
   30688 C5        -438.5219  -332.7029   609.3070 C5            1 RES     
   30689 C5        -438.5257  -331.3806   610.3211 C5            1 RES     
   30690 C5        -437.6374  -329.9925   610.1875 C5            1 RES     
   30691 C5        -437.3218  -328.7490   611.3851 C5            1 RES     
   30692 C5        -438.1361  -327.3289   611.8652 C5            1 RES     
   30693 C5        -438.0235  -326.0301   613.1078 C5            1 RES     
   30694 C5        -437.2083  -324.4664   613.3634 C5            1 RES     
   30695 C5        -435.9174  -324.7538   612.4019 C5            1 RES     
   30696 C5        -434.9984  -326.0410   612.6201 C5            1 RES     
   30697 C5        -434.1397  -326.5032   611.3641 C5            1 RES     
   30698 C5        -433.0986  -327.6578   611.6269 C5            1 RES     
   30699 C5        -432.1595  -327.3959   612.8246 C5            1 RES     
   30700 C5        -431.4066  -326.0451   612.7571 C5            1 RES     
   30701 C5        -429.8864  -326.1264   612.5756 C5            1 RES     
   30702 C5        -429.4325  -326.8206   611.2962 C5            1 RES     
   30703 C5        -437.2855  -322.8942   614.5564 C5            1 RES     
   30704 C0        -437.6811  -322.1344   616.3164 C0            1 RES     
   30705 C5        -437.2708  -323.3138   617.2350 C5            1 RES     
   30706 C5        -437.6789  -324.7846   616.7392 C5            1 RES     
   30707 C5        -439.1126  -325.1826   617.1298 C5            1 RES     
   30708 C5        -440.2480  -324.1917   616.7842 C5            1 RES     
   30709 C5        -440.3257  -323.7400   615.3095 C5            1 RES     
   30710 C5        -441.6278  -323.0510   614.9224 C5            1 RES     
   30711 C5        -441.9521  -321.8657   615.8323 C5            1 RES     
   30712 C5        -443.3696  -321.3653   615.5742 C5            1 RES     
   30713 C5        -443.7782  -320.4173   616.6935 C5            1 RES     
   30714 C5        -445.2386  -320.0328   616.6298 C5            1 RES     
   30715 C5        -436.6112  -325.8462   617.1727 C5            1 RES     
   30716 C5        -436.4942  -327.2572   616.4783 C5            1 RES     
   30717 C5        -437.4982  -328.4130   616.7390 C5            1 RES     
   30718 C5        -437.6658  -328.7126   618.2342 C5            1 RES     
   30719 C5        -438.3981  -330.0423   618.5238 C5            1 RES     
   30720 C5        -438.8731  -330.1277   619.9912 C5            1 RES     
   30721 C5        -437.7782  -329.9791   621.0683 C5            1 RES     
   30722 C5        -436.7518  -331.1256   621.1310 C5            1 RES     
   30723 C5        -437.3438  -332.5099   621.4623 C5            1 RES     
   30724 C5        -438.0612  -332.5575   622.8142 C5            1 RES     
   30725 H6        -441.1947  -335.8016   605.5460 H6            1 RES     
   30726 H6        -439.9108  -336.8462   606.2606 H6            1 RES     
   30727 H6        -441.5908  -336.9133   606.8843 H6            1 RES     
   30728 H6        -441.4567  -334.5868   607.7107 H6            1 RES     
   30729 H6        -440.1682  -335.5937   608.4810 H6            1 RES     
   30730 H6        -438.4574  -334.6026   606.8891 H6            1 RES     
   30731 H6        -439.7864  -333.7692   606.0466 H6            1 RES     
   30732 H6        -440.2650  -332.2999   608.0024 H6            1 RES     
   30733 H6        -438.6565  -332.0418   607.2366 H6            1 RES     
   30734 H6        -437.4882  -333.0958   609.1598 H6            1 RES     
   30735 H6        -439.0577  -333.5136   609.8564 H6            1 RES     
   30736 H6        -438.1585  -331.8436   611.2638 H6            1 RES     
   30737 H6        -439.5890  -331.1246   610.4690 H6            1 RES     
   30738 H6        -436.6343  -330.4571   610.0169 H6            1 RES     
   30739 H6        -437.8918  -329.5295   609.2120 H6            1 RES     
   30740 H6        -436.3476  -328.3906   610.9926 H6            1 RES     
   30741 H6        -437.0663  -329.3578   612.2788 H6            1 RES     
   30742 H6        -438.3200  -326.8095   610.9021 H6            1 RES     
   30743 H6        -439.0930  -327.8159   612.1428 H6            1 RES     
   30744 H6        -437.8921  -326.6118   614.0253 H6            1 RES     
   30745 H6        -439.0758  -325.7168   613.1061 H6            1 RES     
   30746 H6        -437.7562  -323.9094   612.5706 H6            1 RES     
   30747 H6        -435.2976  -323.8527   612.2216 H6            1 RES     
   30748 H6        -436.3526  -324.9843   611.3935 H6            1 RES     
   30749 H6        -435.5966  -326.9358   612.8829 H6            1 RES     
   30750 H6        -434.3333  -325.8097   613.4665 H6            1 RES     
   30751 H6        -433.6037  -325.6416   610.9322 H6            1 RES     
   30752 H6        -434.7954  -326.8553   610.5338 H6            1 RES     
   30753 H6        -432.4814  -327.8303   610.7120 H6            1 RES     
   30754 H6        -433.6287  -328.6180   611.8262 H6            1 RES     
   30755 H6        -432.8120  -327.3923   613.7197 H6            1 RES     
   30756 H6        -431.4544  -328.2408   613.0014 H6            1 RES     
   30757 H6        -431.8223  -325.3716   611.9895 H6            1 RES     
   30758 H6        -431.5695  -325.5319   613.7279 H6            1 RES     
   30759 H6        -429.4390  -326.6466   613.4483 H6            1 RES     
   30760 H6        -429.5039  -325.0815   612.5609 H6            1 RES     
   30761 H6        -429.8608  -326.3245   610.4009 H6            1 RES     
   30762 H6        -428.3234  -326.7631   611.2385 H6            1 RES     
   30763 H6        -429.7234  -327.8910   611.3079 H6            1 RES     
   30764 H6        -437.9267  -322.2277   613.9354 H6            1 RES     
   30765 H6        -436.2961  -322.4418   614.3334 H6            1 RES     
   30766 H6        -436.1678  -323.2232   617.2519 H6            1 RES     
   30767 H6        -437.6544  -323.1400   618.2595 H6            1 RES     
   30768 H6        -437.6395  -324.8753   615.6699 H6            1 RES     
   30769 H6        -439.3431  -326.1424   616.6345 H6            1 RES     
   30770 H6        -439.1458  -325.3434   618.2239 H6            1 RES     
   30771 H6        -441.1950  -324.7066   617.0487 H6            1 RES     
   30772 H6        -440.1400  -323.2998   617.4365 H6            1 RES     
   30773 H6        -439.5770  -322.9949   615.1259 H6            1 RES     
   30774 H6        -440.1757  -324.5967   614.6330 H6            1 RES     
   30775 H6        -441.5619  -322.6992   613.8666 H6            1 RES     
   30776 H6        -442.4299  -323.8118   614.9943 H6            1 RES     
   30777 H6        -441.9329  -322.2213   616.8796 H6            1 RES     
   30778 H6        -441.2031  -321.0482   615.7224 H6            1 RES     
   30779 H6        -443.4416  -320.8722   614.5796 H6            1 RES     
   30780 H6        -444.0551  -322.2379   615.6027 H6            1 RES     
   30781 H6        -443.1766  -319.5032   616.6000 H6            1 RES     
   30782 H6        -443.6052  -320.9119   617.6790 H6            1 RES     
   30783 H6        -445.4383  -319.4738   615.6944 H6            1 RES     
   30784 H6        -445.4731  -319.3902   617.5054 H6            1 RES     
   30785 H6        -445.8683  -320.9457   616.6768 H6            1 RES     
   30786 H6        -436.6067  -325.9532   618.2721 H6            1 RES     
   30787 H6        -435.6427  -325.3830   616.8768 H6            1 RES     
   30788 H6        -436.3675  -327.1397   615.3854 H6            1 RES     
   30789 H6        -435.5184  -327.6646   616.8215 H6            1 RES     
   30790 H6        -438.4885  -328.2289   616.2727 H6            1 RES     
   30791 H6        -437.0770  -329.3203   616.2417 H6            1 RES     
   30792 H6        -438.2374  -327.8647   618.6634 H6            1 RES     
   30793 H6        -436.6663  -328.7705   618.7149 H6            1 RES     
   30794 H6        -437.7438  -330.9067   618.2652 H6            1 RES     
   30795 H6        -439.3102  -330.1146   617.8921 H6            1 RES     
   30796 H6        -439.4344  -331.0726   620.1508 H6            1 RES     
   30797 H6        -439.5959  -329.2973   620.1428 H6            1 RES     
   30798 H6        -438.2720  -329.8898   622.0572 H6            1 RES     
   30799 H6        -437.2383  -329.0223   620.9136 H6            1 RES     
   30800 H6        -436.2082  -331.1880   620.1649 H6            1 RES     
   30801 H6        -436.0067  -330.8723   621.9178 H6            1 RES     
   30802 H6        -438.0421  -332.8330   620.6632 H6            1 RES     
   30803 H6        -436.5065  -333.2407   621.4938 H6            1 RES     
   30804 H6        -437.3718  -332.2564   623.6317 H6            1 RES     
   30805 H6        -438.9506  -331.8947   622.8200 H6            1 RES     
   30806 H6        -438.4129  -333.5922   623.0105 H6            1 RES     
   30807 C0        -441.0178  -310.0679   625.9603 C0            1 RES     
   30808 C0        -442.3292  -311.3081   625.5559 C0            1 RES     
   30809 C0        -442.2503  -312.3550   626.4655 C0            1 RES     
   30810 S1        -443.1663  -313.7572   626.0825 S1            1 RES     
   30811 C0        -443.8818  -313.3537   624.6400 C0            1 RES     
   30812 C0        -443.3389  -311.9059   624.4697 C0            1 RES     
   30813 C0        -441.0034  -312.3318   627.2312 C0            1 RES     
   30814 C0        -440.2723  -311.3976   626.2807 C0            1 RES     
   30815 C0        -439.5317  -312.0967   625.3781 C0            1 RES     
   30816 C0        -439.4521  -313.4688   625.6032 C0            1 RES     
   30817 S1        -440.2640  -314.0075   627.0834 S1            1 RES     
   30818 H2        -443.5732  -311.4110   623.5349 H2            1 RES     
   30819 H2        -439.1970  -311.6867   624.4393 H2            1 RES     
   30820 N3        -445.2168  -317.0747   624.0692 N3            1 RES     
   30821 C0        -444.5798  -315.9645   624.4720 C0            1 RES     
   30822 C0        -444.7868  -314.6049   623.9421 C0            1 RES     
   30823 C0        -445.8112  -314.6803   622.8794 C0            1 RES     
   30824 N3        -446.2663  -313.6168   622.1441 N3            1 RES     
   30825 S1        -447.4159  -314.2906   621.1443 S1            1 RES     
   30826 N3        -447.3926  -315.8953   621.5375 N3            1 RES     
   30827 C0        -446.4623  -315.9366   622.5007 C0            1 RES     
   30828 C0        -446.1628  -317.1393   623.0922 C0            1 RES     
   30829 H4        -443.8628  -316.1485   625.2410 H4            1 RES     
   30830 C5        -432.2260  -298.1512   638.4866 C5            1 RES     
   30831 C5        -433.1279  -299.0256   637.5698 C5            1 RES     
   30832 C5        -432.9098  -298.7724   636.0419 C5            1 RES     
   30833 C5        -433.5403  -299.8143   634.9954 C5            1 RES     
   30834 C5        -435.1014  -299.8458   634.6982 C5            1 RES     
   30835 C5        -435.8381  -301.0545   633.8189 C5            1 RES     
   30836 C5        -435.8231  -301.2754   632.1804 C5            1 RES     
   30837 C5        -436.8544  -302.2831   631.1800 C5            1 RES     
   30838 C5        -436.7957  -303.9124   630.6777 C5            1 RES     
   30839 C5        -437.7883  -305.1103   629.7700 C5            1 RES     
   30840 C5        -438.0801  -305.6344   628.0923 C5            1 RES     
   30841 C5        -437.6946  -304.2189   627.3702 C5            1 RES     
   30842 C5        -438.4149  -302.8573   627.7900 C5            1 RES     
   30843 C5        -437.6303  -301.5192   627.4404 C5            1 RES     
   30844 C5        -438.4153  -300.1742   627.6870 C5            1 RES     
   30845 C5        -439.8151  -300.1356   627.0357 C5            1 RES     
   30846 C5        -439.8185  -300.4497   625.5199 C5            1 RES     
   30847 C5        -440.2034  -299.2929   624.5903 C5            1 RES     
   30848 C5        -439.2880  -298.0763   624.6724 C5            1 RES     
   30849 C5        -438.9184  -307.1166   627.0916 C5            1 RES     
   30850 C0        -440.2882  -308.5105   626.9812 C0            1 RES     
   30851 C5        -441.4578  -307.8207   627.7291 C5            1 RES     
   30852 C5        -441.0752  -306.9893   629.0474 C5            1 RES     
   30853 C5        -440.9855  -307.8606   630.3120 C5            1 RES     
   30854 C5        -440.1150  -309.1363   630.2398 C5            1 RES     
   30855 C5        -438.6592  -308.9356   629.7654 C5            1 RES     
   30856 C5        -437.7364  -310.1194   630.0241 C5            1 RES     
   30857 C5        -438.2835  -311.4225   629.4406 C5            1 RES     
   30858 C5        -437.4668  -312.6132   629.9321 C5            1 RES     
   30859 C5        -438.2126  -313.9007   629.6085 C5            1 RES     
   30860 C5        -437.5774  -315.1186   630.2394 C5            1 RES     
   30861 C5        -442.0133  -305.7473   629.2272 C5            1 RES     
   30862 C5        -441.6250  -304.5220   630.1408 C5            1 RES     
   30863 C5        -441.6815  -304.5734   631.6920 C5            1 RES     
   30864 C5        -443.0463  -305.0454   632.2097 C5            1 RES     
   30865 C5        -443.2520  -304.8117   633.7234 C5            1 RES     
   30866 C5        -444.4499  -305.6189   634.2708 C5            1 RES     
   30867 C5        -445.8106  -305.3582   633.5915 C5            1 RES     
   30868 C5        -446.4046  -303.9552   633.8168 C5            1 RES     
   30869 C5        -446.7068  -303.6064   635.2877 C5            1 RES     
   30870 C5        -447.7063  -304.5611   635.9467 C5            1 RES     
   30871 H6        -431.1443  -298.3401   638.2990 H6            1 RES     
   30872 H6        -432.4161  -297.0638   638.3625 H6            1 RES     
   30873 H6        -432.4045  -298.3977   639.5609 H6            1 RES     
   30874 H6        -432.8670  -300.0781   637.8069 H6            1 RES     
   30875 H6        -434.1862  -298.8428   637.8455 H6            1 RES     
   30876 H6        -433.1772  -297.7176   635.8062 H6            1 RES     
   30877 H6        -431.8029  -298.8444   635.9165 H6            1 RES     
   30878 H6        -433.2179  -300.8148   635.3434 H6            1 RES     
   30879 H6        -433.0444  -299.5985   634.0278 H6            1 RES     
   30880 H6        -435.3916  -298.8372   634.3201 H6            1 RES     
   30881 H6        -435.5391  -299.9007   635.7237 H6            1 RES     
   30882 H6        -436.9076  -300.8557   634.0524 H6            1 RES     
   30883 H6        -435.5584  -301.9971   634.3203 H6            1 RES     
   30884 H6        -436.0916  -300.2339   631.8734 H6            1 RES     
   30885 H6        -434.7634  -301.3851   631.8711 H6            1 RES     
   30886 H6        -436.7849  -301.7001   630.2382 H6            1 RES     
   30887 H6        -437.8608  -302.0507   631.5895 H6            1 RES     
   30888 H6        -435.7642  -304.0141   630.2820 H6            1 RES     
   30889 H6        -436.7845  -304.3603   631.6922 H6            1 RES     
   30890 H6        -438.7684  -304.9884   630.2410 H6            1 RES     
   30891 H6        -437.3658  -306.0268   630.2025 H6            1 RES     
   30892 H6        -437.0706  -306.0709   627.9209 H6            1 RES     
   30893 H6        -437.6139  -304.2986   626.2675 H6            1 RES     
   30894 H6        -436.6440  -304.0021   627.6995 H6            1 RES     
   30895 H6        -438.5786  -302.7970   628.8841 H6            1 RES     
   30896 H6        -439.3977  -302.8583   627.2936 H6            1 RES     
   30897 H6        -437.2936  -301.5392   626.3905 H6            1 RES     
   30898 H6        -436.6838  -301.4414   628.0246 H6            1 RES     
   30899 H6        -437.8163  -299.3089   627.3128 H6            1 RES     
   30900 H6        -438.5543  -300.0028   628.7797 H6            1 RES     
   30901 H6        -440.4085  -300.9112   627.5584 H6            1 RES     
   30902 H6        -440.3550  -299.1846   627.2504 H6            1 RES     
   30903 H6        -438.8619  -300.8787   625.1787 H6            1 RES     
   30904 H6        -440.5796  -301.2402   625.3523 H6            1 RES     
   30905 H6        -441.2454  -298.9775   624.8075 H6            1 RES     
   30906 H6        -440.1696  -299.6862   623.5499 H6            1 RES     
   30907 H6        -438.2356  -298.3551   624.4586 H6            1 RES     
   30908 H6        -439.6204  -297.3334   623.9144 H6            1 RES     
   30909 H6        -439.3554  -297.6032   625.6734 H6            1 RES     
   30910 H6        -438.0179  -307.7489   626.9175 H6            1 RES     
   30911 H6        -438.9967  -306.6446   626.0893 H6            1 RES     
   30912 H6        -441.8520  -307.1302   626.9591 H6            1 RES     
   30913 H6        -442.2409  -308.5673   627.9669 H6            1 RES     
   30914 H6        -440.1161  -306.5141   628.9604 H6            1 RES     
   30915 H6        -440.5900  -307.2307   631.1283 H6            1 RES     
   30916 H6        -442.0073  -308.1817   630.5893 H6            1 RES     
   30917 H6        -440.0995  -309.5550   631.2676 H6            1 RES     
   30918 H6        -440.6221  -309.8644   629.5724 H6            1 RES     
   30919 H6        -438.6445  -308.8274   628.6988 H6            1 RES     
   30920 H6        -438.2164  -308.0446   630.2386 H6            1 RES     
   30921 H6        -436.7330  -309.9107   629.5853 H6            1 RES     
   30922 H6        -437.6313  -310.2133   631.1229 H6            1 RES     
   30923 H6        -439.3099  -311.5677   629.8270 H6            1 RES     
   30924 H6        -438.3261  -311.3869   628.3278 H6            1 RES     
   30925 H6        -436.4498  -312.6103   629.4813 H6            1 RES     
   30926 H6        -437.3799  -312.5409   631.0364 H6            1 RES     
   30927 H6        -438.2036  -314.0328   628.5183 H6            1 RES     
   30928 H6        -439.2573  -313.8303   629.9950 H6            1 RES     
   30929 H6        -436.5598  -315.2662   629.8270 H6            1 RES     
   30930 H6        -438.2059  -316.0050   630.0072 H6            1 RES     
   30931 H6        -437.5334  -314.9894   631.3410 H6            1 RES     
   30932 H6        -443.0453  -306.0786   629.4402 H6            1 RES     
   30933 H6        -442.0153  -305.2697   628.2212 H6            1 RES     
   30934 H6        -440.6442  -304.1100   629.8370 H6            1 RES     
   30935 H6        -442.3494  -303.7231   629.8706 H6            1 RES     
   30936 H6        -440.8718  -305.1961   632.1263 H6            1 RES     
   30937 H6        -441.5079  -303.5305   632.0527 H6            1 RES     
   30938 H6        -443.1125  -306.1286   631.9817 H6            1 RES     
   30939 H6        -443.8537  -304.5013   631.6753 H6            1 RES     
   30940 H6        -443.3751  -303.7238   633.9321 H6            1 RES     
   30941 H6        -442.3558  -305.1585   634.2826 H6            1 RES     
   30942 H6        -444.5389  -305.4640   635.3668 H6            1 RES     
   30943 H6        -444.2088  -306.6930   634.1185 H6            1 RES     
   30944 H6        -446.5343  -306.1137   633.9594 H6            1 RES     
   30945 H6        -445.7167  -305.5371   632.5006 H6            1 RES     
   30946 H6        -445.7157  -303.1910   633.3995 H6            1 RES     
   30947 H6        -447.3575  -303.8936   633.2454 H6            1 RES     
   30948 H6        -445.7696  -303.5875   635.8809 H6            1 RES     
   30949 H6        -447.1426  -302.5840   635.3136 H6            1 RES     
   30950 H6        -448.6607  -304.5789   635.3783 H6            1 RES     
   30951 H6        -447.2965  -305.5899   636.0104 H6            1 RES     
   30952 H6        -447.9171  -304.2196   636.9820 H6            1 RES     
   30953 C0        -446.1973  -321.9401   621.1106 C0            1 RES     
   30954 C0        -445.5435  -321.9052   622.8405 C0            1 RES     
   30955 C0        -446.5673  -321.5224   623.6979 C0            1 RES     
   30956 S1        -446.0979  -321.1227   625.3015 S1            1 RES     
   30957 C0        -444.4524  -321.3392   625.2743 C0            1 RES     
   30958 C0        -444.2718  -321.8206   623.8061 C0            1 RES     
   30959 C0        -447.7134  -320.9647   622.9789 C0            1 RES     
   30960 C0        -446.9566  -320.7077   621.6859 C0            1 RES     
   30961 C0        -446.4915  -319.4298   621.6350 C0            1 RES     
   30962 C0        -446.9325  -318.5908   622.6555 C0            1 RES     
   30963 S1        -448.0904  -319.3466   623.7640 S1            1 RES     
   30964 H2        -443.2520  -321.9516   623.4647 H2            1 RES     
   30965 H2        -445.6830  -319.1168   620.9949 H2            1 RES     
   30966 N3        -444.0073  -319.6923   628.8858 N3            1 RES     
   30967 C0        -444.4394  -320.1055   627.6845 C0            1 RES     
   30968 C0        -443.6738  -320.9122   626.7176 C0            1 RES     
   30969 C0        -442.3405  -321.1763   627.2980 C0            1 RES     
   30970 N3        -441.3413  -321.8905   626.6892 N3            1 RES     
   30971 S1        -440.1109  -321.8849   627.8123 S1            1 RES     
   30972 N3        -440.7218  -320.9990   629.0661 N3            1 RES     
   30973 C0        -441.9474  -320.6892   628.6223 C0            1 RES     
   30974 C0        -442.7793  -319.9409   629.4186 C0            1 RES     
   30975 H4        -445.4313  -319.7804   627.4615 H4            1 RES     
   30976 C5        -459.0989  -328.0388   607.9741 C5            1 RES     
   30977 C5        -458.0631  -327.7677   609.1020 C5            1 RES     
   30978 C5        -456.6931  -327.2199   608.5834 C5            1 RES     
   30979 C5        -455.6590  -326.6101   609.6498 C5            1 RES     
   30980 C5        -454.8347  -327.5486   610.6326 C5            1 RES     
   30981 C5        -453.9422  -326.9671   611.9142 C5            1 RES     
   30982 C5        -452.4688  -326.2182   611.8721 C5            1 RES     
   30983 C5        -451.3297  -325.9207   613.1737 C5            1 RES     
   30984 C5        -451.1306  -324.6677   614.3140 C5            1 RES     
   30985 C5        -450.1194  -324.2575   615.7469 C5            1 RES     
   30986 C5        -448.5460  -323.5125   616.1263 C5            1 RES     
   30987 C5        -447.8052  -323.8792   614.7155 C5            1 RES     
   30988 C5        -447.7330  -325.3853   614.1905 C5            1 RES     
   30989 C5        -447.4894  -325.5665   612.6297 C5            1 RES     
   30990 C5        -447.2369  -327.0430   612.1373 C5            1 RES     
   30991 C5        -446.1327  -327.7860   612.9207 C5            1 RES     
   30992 C5        -444.7798  -327.0358   612.9763 C5            1 RES     
   30993 C5        -443.6124  -327.6898   612.2280 C5            1 RES     
   30994 C5        -443.8317  -327.8627   610.7291 C5            1 RES     
   30995 C5        -447.5462  -322.7833   617.6657 C5            1 RES     
   30996 C0        -447.1659  -322.7986   619.5858 C0            1 RES     
   30997 C5        -447.3372  -324.3073   619.8984 C5            1 RES     
   30998 C5        -448.5653  -325.0530   619.1833 C5            1 RES     
   30999 C5        -449.8942  -324.9036   619.9436 C5            1 RES     
   31000 C5        -450.3277  -323.4762   620.3502 C5            1 RES     
   31001 C5        -450.3773  -322.4344   619.2113 C5            1 RES     
   31002 C5        -451.1209  -321.1504   619.5550 C5            1 RES     
   31003 C5        -450.5828  -320.4878   620.8236 C5            1 RES     
   31004 C5        -451.5046  -319.3570   621.2687 C5            1 RES     
   31005 C5        -451.1333  -318.9351   622.6839 C5            1 RES     
   31006 C5        -452.1232  -317.9622   623.2825 C5            1 RES     
   31007 C5        -448.2122  -326.5446   618.8587 C5            1 RES     
   31008 C5        -449.0100  -327.3873   617.7910 C5            1 RES     
   31009 C5        -450.4289  -327.9605   618.0559 C5            1 RES     
   31010 C5        -450.4921  -328.7845   619.3484 C5            1 RES     
   31011 C5        -451.7808  -329.6261   619.4870 C5            1 RES     
   31012 C5        -451.9807  -330.1351   620.9317 C5            1 RES     
   31013 C5        -450.8314  -330.9816   621.5178 C5            1 RES     
   31014 C5        -450.6185  -332.3563   620.8570 C5            1 RES     
   31015 C5        -451.8162  -333.3210   620.9643 C5            1 RES     
   31016 C5        -452.2117  -333.6420   622.4083 C5            1 RES     
   31017 H6        -459.3385  -327.1115   607.4051 H6            1 RES     
   31018 H6        -458.7543  -328.8103   607.2530 H6            1 RES     
   31019 H6        -460.0635  -328.3978   608.4069 H6            1 RES     
   31020 H6        -458.5319  -327.0112   609.7652 H6            1 RES     
   31021 H6        -457.9141  -328.7074   609.6714 H6            1 RES     
   31022 H6        -456.2228  -327.9830   607.9227 H6            1 RES     
   31023 H6        -456.9815  -326.3720   607.9171 H6            1 RES     
   31024 H6        -456.2442  -325.8848   610.2478 H6            1 RES     
   31025 H6        -454.9103  -326.0537   609.0510 H6            1 RES     
   31026 H6        -454.2319  -328.2459   610.0042 H6            1 RES     
   31027 H6        -455.6336  -328.1880   611.0789 H6            1 RES     
   31028 H6        -453.7478  -327.9091   612.4734 H6            1 RES     
   31029 H6        -454.6451  -326.3637   612.5141 H6            1 RES     
   31030 H6        -451.9344  -326.9475   611.2135 H6            1 RES     
   31031 H6        -452.5764  -325.3115   611.2421 H6            1 RES     
   31032 H6        -450.3983  -325.8973   612.5707 H6            1 RES     
   31033 H6        -451.3151  -326.9052   613.6886 H6            1 RES     
   31034 H6        -451.1473  -323.7537   613.6854 H6            1 RES     
   31035 H6        -452.1376  -324.7480   614.7718 H6            1 RES     
   31036 H6        -450.1874  -325.1767   616.3367 H6            1 RES     
   31037 H6        -450.8056  -323.5478   616.2276 H6            1 RES     
   31038 H6        -448.8119  -322.4840   615.7937 H6            1 RES     
   31039 H6        -446.8283  -323.3706   614.5898 H6            1 RES     
   31040 H6        -448.4500  -323.4185   613.9211 H6            1 RES     
   31041 H6        -448.6754  -325.9353   614.3828 H6            1 RES     
   31042 H6        -446.9259  -325.8749   614.7571 H6            1 RES     
   31043 H6        -446.6433  -324.9398   612.3017 H6            1 RES     
   31044 H6        -448.3532  -325.1823   612.0385 H6            1 RES     
   31045 H6        -446.9751  -327.0434   611.0514 H6            1 RES     
   31046 H6        -448.1701  -327.6457   612.2293 H6            1 RES     
   31047 H6        -446.5200  -327.8928   613.9529 H6            1 RES     
   31048 H6        -445.9967  -328.8344   612.5678 H6            1 RES     
   31049 H6        -444.8691  -325.9860   612.6509 H6            1 RES     
   31050 H6        -444.4728  -326.9953   614.0423 H6            1 RES     
   31051 H6        -443.3954  -328.6807   612.6791 H6            1 RES     
   31052 H6        -442.7232  -327.0378   612.3783 H6            1 RES     
   31053 H6        -444.0501  -326.8890   610.2440 H6            1 RES     
   31054 H6        -442.9031  -328.2821   610.2832 H6            1 RES     
   31055 H6        -444.6606  -328.5736   610.5346 H6            1 RES     
   31056 H6        -447.8001  -321.7047   617.5513 H6            1 RES     
   31057 H6        -446.5231  -322.7685   617.2340 H6            1 RES     
   31058 H6        -446.3834  -324.7314   619.5302 H6            1 RES     
   31059 H6        -447.3899  -324.4578   620.9946 H6            1 RES     
   31060 H6        -448.7549  -324.6658   618.1997 H6            1 RES     
   31061 H6        -450.6939  -325.3297   619.3122 H6            1 RES     
   31062 H6        -449.8349  -325.5005   620.8732 H6            1 RES     
   31063 H6        -451.3441  -323.5769   620.7845 H6            1 RES     
   31064 H6        -449.6405  -323.1188   621.1455 H6            1 RES     
   31065 H6        -449.3822  -322.1028   618.9891 H6            1 RES     
   31066 H6        -450.8381  -322.8677   618.3091 H6            1 RES     
   31067 H6        -451.0414  -320.4360   618.7028 H6            1 RES     
   31068 H6        -452.1862  -321.4210   619.6939 H6            1 RES     
   31069 H6        -450.5963  -321.2389   621.6356 H6            1 RES     
   31070 H6        -449.5356  -320.1325   620.6875 H6            1 RES     
   31071 H6        -451.4496  -318.4989   620.5630 H6            1 RES     
   31072 H6        -452.5435  -319.7470   621.2935 H6            1 RES     
   31073 H6        -450.1503  -318.4469   622.6452 H6            1 RES     
   31074 H6        -451.1081  -319.8350   623.3437 H6            1 RES     
   31075 H6        -452.1264  -317.0226   622.6955 H6            1 RES     
   31076 H6        -451.8181  -317.7469   624.3290 H6            1 RES     
   31077 H6        -453.1359  -318.4165   623.2910 H6            1 RES     
   31078 H6        -448.0915  -327.1186   619.7947 H6            1 RES     
   31079 H6        -447.2119  -326.4799   618.3736 H6            1 RES     
   31080 H6        -449.0167  -326.8660   616.8151 H6            1 RES     
   31081 H6        -448.3839  -328.2883   617.6120 H6            1 RES     
   31082 H6        -451.2104  -327.1724   618.0665 H6            1 RES     
   31083 H6        -450.6676  -328.6326   617.1962 H6            1 RES     
   31084 H6        -450.4201  -328.0620   620.1866 H6            1 RES     
   31085 H6        -449.6307  -329.4848   619.3840 H6            1 RES     
   31086 H6        -451.7670  -330.4739   618.7636 H6            1 RES     
   31087 H6        -452.6671  -328.9989   619.2478 H6            1 RES     
   31088 H6        -452.9372  -330.6946   621.0047 H6            1 RES     
   31089 H6        -452.0864  -329.2361   621.5763 H6            1 RES     
   31090 H6        -451.0266  -331.1334   622.5989 H6            1 RES     
   31091 H6        -449.8849  -330.4056   621.4605 H6            1 RES     
   31092 H6        -450.3641  -332.2156   619.7854 H6            1 RES     
   31093 H6        -449.7434  -332.8377   621.3477 H6            1 RES     
   31094 H6        -452.6937  -332.9093   620.4250 H6            1 RES     
   31095 H6        -451.5324  -334.2743   620.4676 H6            1 RES     
   31096 H6        -451.3507  -334.0753   622.9608 H6            1 RES     
   31097 H6        -452.5698  -332.7353   622.9374 H6            1 RES     
   31098 H6        -453.0410  -334.3804   622.4096 H6            1 RES     
   31099 C0        -441.6561  -316.2071   632.8497 C0            1 RES     
   31100 C0        -443.4795  -316.4147   632.6180 C0            1 RES     
   31101 C0        -443.8495  -317.6698   633.0844 C0            1 RES     
   31102 S1        -445.4362  -318.1878   632.6773 S1            1 RES     
   31103 C0        -446.0282  -316.9163   631.7896 C0            1 RES     
   31104 C0        -444.8097  -315.9520   631.8610 C0            1 RES     
   31105 C0        -442.6954  -318.5427   633.3030 C0            1 RES     
   31106 C0        -441.7329  -317.7151   632.4668 C0            1 RES     
   31107 C0        -441.6602  -318.1858   631.1920 C0            1 RES     
   31108 C0        -442.3198  -319.3904   630.9599 C0            1 RES     
   31109 S1        -443.0440  -320.1096   632.4086 S1            1 RES     
   31110 H2        -444.8767  -315.0473   631.2687 H2            1 RES     
   31111 H2        -441.3102  -317.5969   630.3601 H2            1 RES     
   31112 N3        -449.2726  -318.9729   630.6951 N3            1 RES     
   31113 C0        -448.0724  -318.5680   631.1379 C0            1 RES     
   31114 C0        -447.5729  -317.1815   631.1451 C0            1 RES     
   31115 C0        -448.6217  -316.3155   630.5669 C0            1 RES     
   31116 N3        -448.5218  -314.9588   630.3986 N3            1 RES     
   31117 S1        -449.9946  -314.5319   629.7474 S1            1 RES     
   31118 N3        -450.8019  -315.9675   629.6165 N3            1 RES     
   31119 C0        -449.9106  -316.8387   630.1078 C0            1 RES     
   31120 C0        -450.2378  -318.1712   630.1665 C0            1 RES     
   31121 H4        -447.4655  -319.3698   631.4957 H4            1 RES     
   31122 C5        -425.8614  -316.3701   644.1065 C5            1 RES     
   31123 C5        -427.2297  -316.2457   643.3779 C5            1 RES     
   31124 C5        -427.1563  -315.4657   642.0243 C5            1 RES     
   31125 C5        -428.4166  -315.5341   641.0317 C5            1 RES     
   31126 C5        -429.7567  -314.7370   641.3403 C5            1 RES     
   31127 C5        -431.1694  -314.9629   640.4858 C5            1 RES     
   31128 C5        -431.5424  -314.4135   638.9716 C5            1 RES     
   31129 C5        -433.1037  -314.2987   638.1784 C5            1 RES     
   31130 C5        -434.0393  -315.3711   637.2379 C5            1 RES     
   31131 C5        -435.6595  -315.4629   636.4565 C5            1 RES     
   31132 C5        -436.4574  -314.9968   634.9331 C5            1 RES     
   31133 C5        -435.4738  -313.7430   634.5671 C5            1 RES     
   31134 C5        -435.2401  -312.5503   635.6024 C5            1 RES     
   31135 C5        -433.9136  -311.6986   635.3939 C5            1 RES     
   31136 C5        -433.7697  -310.4132   636.2957 C5            1 RES     
   31137 C5        -434.9960  -309.4754   636.2528 C5            1 RES     
   31138 C5        -435.4160  -309.0450   634.8264 C5            1 RES     
   31139 C5        -435.2382  -307.5603   634.4880 C5            1 RES     
   31140 C5        -433.8031  -307.0529   634.5759 C5            1 RES     
   31141 C5        -438.1241  -315.3370   633.9294 C5            1 RES     
   31142 C0        -440.0332  -315.7693   633.9336 C0            1 RES     
   31143 C5        -440.4862  -315.0476   635.2286 C5            1 RES     
   31144 C5        -439.5015  -315.1544   636.4913 C5            1 RES     
   31145 C5        -439.7084  -316.4352   637.3179 C5            1 RES     
   31146 C5        -439.7161  -317.7819   636.5583 C5            1 RES     
   31147 C5        -438.4919  -318.0576   635.6582 C5            1 RES     
   31148 C5        -438.3529  -319.5027   635.1977 C5            1 RES     
   31149 C5        -439.6156  -320.0173   634.5058 C5            1 RES     
   31150 C5        -439.5298  -321.5244   634.2879 C5            1 RES     
   31151 C5        -440.9044  -322.0546   633.9035 C5            1 RES     
   31152 C5        -440.9595  -323.5647   633.8678 C5            1 RES     
   31153 C5        -439.5504  -313.8521   637.3610 C5            1 RES     
   31154 C5        -438.4076  -313.4747   638.3800 C5            1 RES     
   31155 C5        -438.2334  -314.1793   639.7530 C5            1 RES     
   31156 C5        -439.5267  -314.1745   640.5782 C5            1 RES     
   31157 C5        -439.3224  -314.5743   642.0569 C5            1 RES     
   31158 C5        -440.6604  -314.9176   642.7483 C5            1 RES     
   31159 C5        -441.7361  -313.8115   642.7312 C5            1 RES     
   31160 C5        -441.4075  -312.5559   643.5602 C5            1 RES     
   31161 C5        -441.2251  -312.8044   645.0706 C5            1 RES     
   31162 C5        -442.4649  -313.3998   645.7437 C5            1 RES     
   31163 H6        -425.1127  -316.9116   643.4842 H6            1 RES     
   31164 H6        -425.4338  -315.3835   644.3853 H6            1 RES     
   31165 H6        -425.9716  -316.9608   645.0475 H6            1 RES     
   31166 H6        -427.5620  -317.2866   643.1825 H6            1 RES     
   31167 H6        -427.9485  -315.7584   644.0673 H6            1 RES     
   31168 H6        -426.8278  -314.4206   642.2240 H6            1 RES     
   31169 H6        -426.3123  -315.9549   641.4817 H6            1 RES     
   31170 H6        -428.6520  -316.6109   640.9263 H6            1 RES     
   31171 H6        -428.0471  -315.1548   640.0578 H6            1 RES     
   31172 H6        -429.4953  -313.6547   641.4095 H6            1 RES     
   31173 H6        -429.9801  -315.0423   642.3905 H6            1 RES     
   31174 H6        -431.8953  -314.4394   641.1467 H6            1 RES     
   31175 H6        -431.3830  -316.0438   640.5483 H6            1 RES     
   31176 H6        -431.2335  -313.3467   639.1050 H6            1 RES     
   31177 H6        -430.7873  -314.8295   638.2734 H6            1 RES     
   31178 H6        -432.8748  -313.4564   637.4929 H6            1 RES     
   31179 H6        -433.7311  -313.8550   638.9809 H6            1 RES     
   31180 H6        -433.3167  -315.7302   636.4764 H6            1 RES     
   31181 H6        -434.1158  -316.1761   637.9970 H6            1 RES     
   31182 H6        -436.3170  -315.1444   637.2712 H6            1 RES     
   31183 H6        -435.7532  -316.5561   636.4130 H6            1 RES     
   31184 H6        -435.9024  -315.7067   634.2797 H6            1 RES     
   31185 H6        -435.6289  -313.3506   633.5421 H6            1 RES     
   31186 H6        -434.4428  -314.1844   634.5306 H6            1 RES     
   31187 H6        -435.1648  -312.9173   636.6451 H6            1 RES     
   31188 H6        -436.1229  -311.8964   635.5296 H6            1 RES     
   31189 H6        -433.8181  -311.3962   634.3377 H6            1 RES     
   31190 H6        -433.0038  -312.3156   635.5801 H6            1 RES     
   31191 H6        -432.8608  -309.8370   635.9963 H6            1 RES     
   31192 H6        -433.6130  -310.7039   637.3604 H6            1 RES     
   31193 H6        -435.8267  -310.0501   636.7072 H6            1 RES     
   31194 H6        -434.8754  -308.5912   636.9203 H6            1 RES     
   31195 H6        -434.9272  -309.6503   634.0451 H6            1 RES     
   31196 H6        -436.5026  -309.2505   634.7303 H6            1 RES     
   31197 H6        -435.8796  -306.9509   635.1586 H6            1 RES     
   31198 H6        -435.5954  -307.4193   633.4436 H6            1 RES     
   31199 H6        -433.1324  -307.6400   633.9152 H6            1 RES     
   31200 H6        -433.7843  -305.9903   634.2483 H6            1 RES     
   31201 H6        -433.4353  -307.0993   635.6214 H6            1 RES     
   31202 H6        -437.7671  -316.1501   633.2569 H6            1 RES     
   31203 H6        -438.0872  -314.4891   633.2131 H6            1 RES     
   31204 H6        -440.5489  -313.9931   634.8980 H6            1 RES     
   31205 H6        -441.5015  -315.3893   635.5108 H6            1 RES     
   31206 H6        -438.4687  -315.1691   636.1973 H6            1 RES     
   31207 H6        -438.9053  -316.4818   638.0746 H6            1 RES     
   31208 H6        -440.6764  -316.3574   637.8480 H6            1 RES     
   31209 H6        -439.7707  -318.5718   637.3361 H6            1 RES     
   31210 H6        -440.6408  -317.8287   635.9457 H6            1 RES     
   31211 H6        -438.5910  -317.5057   634.7444 H6            1 RES     
   31212 H6        -437.5605  -317.7690   636.1711 H6            1 RES     
   31213 H6        -437.4881  -319.5881   634.4993 H6            1 RES     
   31214 H6        -438.1429  -320.1107   636.0997 H6            1 RES     
   31215 H6        -440.4724  -319.8489   635.1851 H6            1 RES     
   31216 H6        -439.8091  -319.4762   633.5513 H6            1 RES     
   31217 H6        -438.7699  -321.7710   633.5138 H6            1 RES     
   31218 H6        -439.2416  -321.9973   635.2500 H6            1 RES     
   31219 H6        -441.1451  -321.6770   632.9007 H6            1 RES     
   31220 H6        -441.6567  -321.7101   634.6526 H6            1 RES     
   31221 H6        -440.2764  -323.9459   633.0834 H6            1 RES     
   31222 H6        -442.0014  -323.8748   633.6376 H6            1 RES     
   31223 H6        -440.6753  -323.9731   634.8601 H6            1 RES     
   31224 H6        -440.5427  -313.7492   637.8352 H6            1 RES     
   31225 H6        -439.4486  -313.0319   636.6146 H6            1 RES     
   31226 H6        -437.4268  -313.4518   637.8683 H6            1 RES     
   31227 H6        -438.5997  -312.4121   638.6442 H6            1 RES     
   31228 H6        -437.8476  -315.2152   639.6531 H6            1 RES     
   31229 H6        -437.4558  -313.6035   640.3112 H6            1 RES     
   31230 H6        -440.2177  -314.8881   640.0853 H6            1 RES     
   31231 H6        -439.9703  -313.1563   640.5660 H6            1 RES     
   31232 H6        -438.7865  -313.7648   642.6044 H6            1 RES     
   31233 H6        -438.6929  -315.4889   642.1157 H6            1 RES     
   31234 H6        -440.4714  -315.2447   643.7926 H6            1 RES     
   31235 H6        -441.0833  -315.7935   642.2108 H6            1 RES     
   31236 H6        -442.6870  -314.2443   643.1034 H6            1 RES     
   31237 H6        -441.9336  -313.5075   641.6826 H6            1 RES     
   31238 H6        -440.4882  -312.0791   643.1598 H6            1 RES     
   31239 H6        -442.2432  -311.8331   643.4285 H6            1 RES     
   31240 H6        -440.3540  -313.4671   645.2510 H6            1 RES     
   31241 H6        -441.0101  -311.8265   645.5540 H6            1 RES     
   31242 H6        -443.3454  -312.7396   645.5919 H6            1 RES     
   31243 H6        -442.6902  -314.4109   645.3471 H6            1 RES     
   31244 H6        -442.2817  -313.5007   646.8342 H6            1 RES     
   31245 C0        -453.2448  -321.0168   627.0303 C0            1 RES     
   31246 C0        -452.4140  -322.0472   628.3223 C0            1 RES     
   31247 C0        -452.9005  -321.6778   629.5699 C0            1 RES     
   31248 S1        -452.0384  -322.2863   630.9257 S1            1 RES     
   31249 C0        -450.8188  -323.1697   630.2274 C0            1 RES     
   31250 C0        -451.1736  -322.9721   628.7258 C0            1 RES     
   31251 C0        -453.6428  -320.4174   629.5248 C0            1 RES     
   31252 C0        -453.0895  -319.9766   628.1793 C0            1 RES     
   31253 C0        -452.0095  -319.1635   628.3351 C0            1 RES     
   31254 C0        -451.7410  -318.7684   629.6434 C0            1 RES     
   31255 S1        -452.9278  -319.3388   630.8295 S1            1 RES     
   31256 H2        -450.4681  -323.3728   628.0079 H2            1 RES     
   31257 H2        -451.2783  -318.9922   627.5622 H2            1 RES     
   31258 N3        -448.9633  -323.6879   633.7262 N3            1 RES     
   31259 C0        -449.7379  -323.2852   632.7073 C0            1 RES     
   31260 C0        -449.7148  -323.8223   631.3351 C0            1 RES     
   31261 C0        -448.6791  -324.8749   631.2743 C0            1 RES     
   31262 N3        -448.3566  -325.6022   630.1581 N3            1 RES     
   31263 S1        -447.1685  -326.6405   630.6926 S1            1 RES     
   31264 N3        -446.9753  -326.2375   632.2833 N3            1 RES     
   31265 C0        -447.8757  -325.2575   632.4378 C0            1 RES     
   31266 C0        -448.0127  -324.6608   633.6672 C0            1 RES     
   31267 H4        -450.4035  -322.4946   632.9740 H4            1 RES     
   31268 C5        -469.2690  -314.2332   618.4617 C5            1 RES     
   31269 C5        -468.0919  -314.9807   619.1503 C5            1 RES     
   31270 C5        -466.7525  -314.9284   618.3446 C5            1 RES     
   31271 C5        -465.3989  -315.3837   619.0787 C5            1 RES     
   31272 C5        -465.0883  -316.9160   619.3645 C5            1 RES     
   31273 C5        -463.8315  -317.4266   620.3324 C5            1 RES     
   31274 C5        -462.2197  -317.4750   619.9670 C5            1 RES     
   31275 C5        -460.9158  -318.3247   620.7781 C5            1 RES     
   31276 C5        -459.8758  -317.9430   622.0753 C5            1 RES     
   31277 C5        -458.5928  -318.7067   623.0824 C5            1 RES     
   31278 C5        -456.8339  -318.9896   623.0502 C5            1 RES     
   31279 C5        -456.6584  -318.9756   621.4246 C5            1 RES     
   31280 C5        -457.5184  -319.9478   620.4950 C5            1 RES     
   31281 C5        -457.6702  -319.5030   618.9760 C5            1 RES     
   31282 C5        -458.3613  -320.5464   618.0169 C5            1 RES     
   31283 C5        -457.7457  -321.9613   618.0802 C5            1 RES     
   31284 C5        -456.2160  -321.9988   617.8461 C5            1 RES     
   31285 C5        -455.7451  -322.6916   616.5620 C5            1 RES     
   31286 C5        -456.2604  -322.0633   615.2718 C5            1 RES     
   31287 C5        -455.3663  -319.5470   624.2487 C5            1 RES     
   31288 C0        -454.7563  -320.5803   625.7952 C0            1 RES     
   31289 C5        -455.6823  -321.8194   625.6936 C5            1 RES     
   31290 C5        -457.2133  -321.5404   625.3015 C5            1 RES     
   31291 C5        -458.0939  -321.1749   626.5087 C5            1 RES     
   31292 C5        -457.5915  -320.0518   627.4450 C5            1 RES     
   31293 C5        -457.2373  -318.7117   626.7641 C5            1 RES     
   31294 C5        -457.0777  -317.5354   627.7183 C5            1 RES     
   31295 C5        -456.0675  -317.8204   628.8301 C5            1 RES     
   31296 C5        -456.1222  -316.7300   629.8951 C5            1 RES     
   31297 C5        -455.3582  -317.1941   631.1278 C5            1 RES     
   31298 C5        -455.5314  -316.2647   632.3071 C5            1 RES     
   31299 C5        -457.8037  -322.7146   624.4485 C5            1 RES     
   31300 C5        -459.0937  -322.5444   623.5575 C5            1 RES     
   31301 C5        -460.5277  -322.4822   624.1505 C5            1 RES     
   31302 C5        -460.8288  -323.6710   625.0723 C5            1 RES     
   31303 C5        -462.3256  -323.8194   625.4271 C5            1 RES     
   31304 C5        -462.5393  -324.7698   626.6259 C5            1 RES     
   31305 C5        -461.9759  -326.1977   626.4683 C5            1 RES     
   31306 C5        -462.6700  -327.0694   625.4052 C5            1 RES     
   31307 C5        -464.1656  -327.3399   625.6627 C5            1 RES     
   31308 C5        -464.4350  -328.0573   626.9884 C5            1 RES     
   31309 H6        -469.0419  -313.1518   618.3202 H6            1 RES     
   31310 H6        -469.5308  -314.6662   617.4728 H6            1 RES     
   31311 H6        -470.1864  -314.2793   619.0965 H6            1 RES     
   31312 H6        -467.9491  -314.4788   620.1300 H6            1 RES     
   31313 H6        -468.3998  -316.0319   619.3223 H6            1 RES     
   31314 H6        -466.8973  -315.4371   617.3647 H6            1 RES     
   31315 H6        -466.6249  -313.8440   618.1122 H6            1 RES     
   31316 H6        -465.3789  -314.8258   620.0349 H6            1 RES     
   31317 H6        -464.5750  -315.0147   618.4354 H6            1 RES     
   31318 H6        -465.0833  -317.4465   618.3831 H6            1 RES     
   31319 H6        -466.0236  -317.2599   619.8677 H6            1 RES     
   31320 H6        -464.1052  -318.4952   620.4779 H6            1 RES     
   31321 H6        -463.9749  -316.9126   621.2985 H6            1 RES     
   31322 H6        -462.2932  -317.9867   618.9750 H6            1 RES     
   31323 H6        -461.9061  -316.4408   619.7166 H6            1 RES     
   31324 H6        -460.2388  -318.4498   619.9076 H6            1 RES     
   31325 H6        -461.3670  -319.3273   620.9388 H6            1 RES     
   31326 H6        -459.4836  -316.9438   621.7945 H6            1 RES     
   31327 H6        -460.6693  -317.7642   622.8292 H6            1 RES     
   31328 H6        -459.0632  -319.6552   623.3590 H6            1 RES     
   31329 H6        -458.6827  -318.0642   623.9683 H6            1 RES     
   31330 H6        -456.5343  -317.9228   623.1563 H6            1 RES     
   31331 H6        -455.5988  -318.9547   621.0996 H6            1 RES     
   31332 H6        -457.0571  -317.9786   621.0985 H6            1 RES     
   31333 H6        -458.5621  -320.0458   620.8538 H6            1 RES     
   31334 H6        -457.0398  -320.9378   620.5517 H6            1 RES     
   31335 H6        -456.6844  -319.2425   618.5559 H6            1 RES     
   31336 H6        -458.2575  -318.5593   618.8881 H6            1 RES     
   31337 H6        -458.3220  -320.1797   616.9626 H6            1 RES     
   31338 H6        -459.4429  -320.6449   618.2684 H6            1 RES     
   31339 H6        -457.9557  -322.3323   619.1026 H6            1 RES     
   31340 H6        -458.2724  -322.6816   617.4125 H6            1 RES     
   31341 H6        -455.7593  -320.9967   617.8992 H6            1 RES     
   31342 H6        -455.7719  -322.5767   618.6834 H6            1 RES     
   31343 H6        -456.0448  -323.7602   616.5894 H6            1 RES     
   31344 H6        -454.6334  -322.6430   616.5547 H6            1 RES     
   31345 H6        -455.9768  -320.9924   615.2099 H6            1 RES     
   31346 H6        -455.8060  -322.6020   614.4115 H6            1 RES     
   31347 H6        -457.3627  -322.1648   615.2006 H6            1 RES     
   31348 H6        -454.9941  -318.5434   624.5573 H6            1 RES     
   31349 H6        -454.5917  -319.7955   623.4926 H6            1 RES     
   31350 H6        -455.1974  -322.4076   624.8909 H6            1 RES     
   31351 H6        -455.6329  -322.4007   626.6352 H6            1 RES     
   31352 H6        -457.3112  -320.7178   624.6182 H6            1 RES     
   31353 H6        -459.0844  -320.8732   626.1247 H6            1 RES     
   31354 H6        -458.2273  -322.0796   627.1316 H6            1 RES     
   31355 H6        -458.4078  -319.8744   628.1759 H6            1 RES     
   31356 H6        -456.7046  -320.4302   627.9953 H6            1 RES     
   31357 H6        -456.2764  -318.7940   626.2957 H6            1 RES     
   31358 H6        -457.9984  -318.4449   626.0136 H6            1 RES     
   31359 H6        -456.7535  -316.6349   627.1464 H6            1 RES     
   31360 H6        -458.0755  -317.3375   628.1572 H6            1 RES     
   31361 H6        -456.3646  -318.7608   629.3314 H6            1 RES     
   31362 H6        -455.0372  -317.9456   628.4251 H6            1 RES     
   31363 H6        -455.7148  -315.7717   629.5034 H6            1 RES     
   31364 H6        -457.1830  -316.5860   630.1888 H6            1 RES     
   31365 H6        -454.2910  -317.2305   630.8712 H6            1 RES     
   31366 H6        -455.7306  -318.1998   631.4370 H6            1 RES     
   31367 H6        -455.1073  -315.2701   632.0656 H6            1 RES     
   31368 H6        -454.9950  -316.6968   633.1790 H6            1 RES     
   31369 H6        -456.6090  -316.1752   632.5580 H6            1 RES     
   31370 H6        -457.8732  -323.6313   625.0609 H6            1 RES     
   31371 H6        -457.0287  -322.8903   623.6684 H6            1 RES     
   31372 H6        -458.9667  -321.7014   622.8523 H6            1 RES     
   31373 H6        -459.1104  -323.4436   622.9041 H6            1 RES     
   31374 H6        -460.7275  -321.5276   624.6803 H6            1 RES     
   31375 H6        -461.2331  -322.5185   623.2850 H6            1 RES     
   31376 H6        -460.2351  -323.5122   625.9954 H6            1 RES     
   31377 H6        -460.5078  -324.6130   624.5792 H6            1 RES     
   31378 H6        -462.9002  -324.1646   624.5367 H6            1 RES     
   31379 H6        -462.7402  -322.8328   625.7287 H6            1 RES     
   31380 H6        -463.6189  -324.8158   626.8820 H6            1 RES     
   31381 H6        -462.0239  -324.3090   627.4959 H6            1 RES     
   31382 H6        -462.0461  -326.7103   627.4493 H6            1 RES     
   31383 H6        -460.8928  -326.1413   626.2347 H6            1 RES     
   31384 H6        -462.5560  -326.5958   624.4074 H6            1 RES     
   31385 H6        -462.1434  -328.0491   625.3721 H6            1 RES     
   31386 H6        -464.7406  -326.3918   625.6336 H6            1 RES     
   31387 H6        -464.5419  -327.9875   624.8411 H6            1 RES     
   31388 H6        -463.8834  -329.0207   627.0291 H6            1 RES     
   31389 H6        -464.1401  -327.4275   627.8526 H6            1 RES     
   31390 H6        -465.5214  -328.2670   627.0818 H6            1 RES     
   31391 C0        -444.4755  -323.7719   637.3649 C0            1 RES     
   31392 C0        -446.1169  -323.0254   637.7771 C0            1 RES     
   31393 C0        -447.0399  -324.0474   637.9589 C0            1 RES     
   31394 S1        -448.6883  -323.5694   638.0380 S1            1 RES     
   31395 C0        -448.6094  -321.9224   637.8470 C0            1 RES     
   31396 C0        -447.0682  -321.7408   637.7391 C0            1 RES     
   31397 C0        -446.5462  -325.3346   637.4680 C0            1 RES     
   31398 C0        -445.4355  -324.7430   636.6154 C0            1 RES     
   31399 C0        -445.8415  -324.5754   635.3273 C0            1 RES     
   31400 C0        -447.0851  -325.1198   635.0158 C0            1 RES     
   31401 S1        -447.8429  -326.0043   636.3514 S1            1 RES     
   31402 H2        -446.7165  -320.7429   637.5063 H2            1 RES     
   31403 H2        -445.3626  -323.9012   634.6363 H2            1 RES     
   31404 N3        -452.5746  -321.6059   637.4863 N3            1 RES     
   31405 C0        -451.2990  -322.0173   637.5491 C0            1 RES     
   31406 C0        -450.1213  -321.1605   637.7751 C0            1 RES     
   31407 C0        -450.5906  -319.7653   637.9079 C0            1 RES     
   31408 N3        -449.7841  -318.6773   638.1189 N3            1 RES     
   31409 S1        -450.8547  -317.4047   638.2166 S1            1 RES     
   31410 N3        -452.3308  -318.1088   637.9816 N3            1 RES     
   31411 C0        -452.0069  -319.3998   637.8291 C0            1 RES     
   31412 C0        -453.0033  -320.3199   637.6130 C0            1 RES     
   31413 H4        -451.1903  -323.0692   637.4048 H4            1 RES     
   31414 C5        -429.8606  -335.8778   641.3729 C5            1 RES     
   31415 C5        -431.0260  -334.8528   641.2753 C5            1 RES     
   31416 C5        -430.7508  -333.6757   640.2829 C5            1 RES     
   31417 C5        -431.9772  -332.7312   639.8561 C5            1 RES     
   31418 C5        -432.5804  -331.6553   640.8586 C5            1 RES     
   31419 C5        -433.9964  -330.8276   640.5641 C5            1 RES     
   31420 C5        -434.2393  -329.5617   639.5287 C5            1 RES     
   31421 C5        -435.5781  -328.4301   639.4429 C5            1 RES     
   31422 C5        -437.0875  -328.4347   638.6482 C5            1 RES     
   31423 C5        -438.5870  -327.4434   638.5343 C5            1 RES     
   31424 C5        -439.2246  -326.0506   637.6242 C5            1 RES     
   31425 C5        -437.7850  -325.3452   637.3027 C5            1 RES     
   31426 C5        -436.7669  -324.9790   638.4768 C5            1 RES     
   31427 C5        -435.2449  -324.8084   638.0493 C5            1 RES     
   31428 C5        -434.2703  -324.2710   639.1662 C5            1 RES     
   31429 C5        -434.7589  -322.9795   639.8577 C5            1 RES     
   31430 C5        -435.0921  -321.8246   638.8823 C5            1 RES     
   31431 C5        -434.1782  -320.5956   638.9519 C5            1 RES     
   31432 C5        -432.7108  -320.8731   638.6447 C5            1 RES     
   31433 C5        -440.9354  -325.1335   637.2592 C5            1 RES     
   31434 C0        -442.7335  -324.6292   637.8455 C0            1 RES     
   31435 C5        -442.4958  -324.4422   639.3659 C5            1 RES     
   31436 C5        -441.5482  -325.5216   640.0818 C5            1 RES     
   31437 C5        -442.2946  -326.7958   640.5129 C5            1 RES     
   31438 C5        -443.1692  -327.5043   639.4529 C5            1 RES     
   31439 C5        -442.4665  -327.8598   638.1245 C5            1 RES     
   31440 C5        -443.2278  -328.8428   637.2448 C5            1 RES     
   31441 C5        -444.6553  -328.3787   636.9536 C5            1 RES     
   31442 C5        -445.4556  -329.4943   636.2893 C5            1 RES     
   31443 C5        -446.9338  -329.1295   636.3061 C5            1 RES     
   31444 C5        -447.8215  -330.2662   635.8539 C5            1 RES     
   31445 C5        -440.7268  -324.8716   641.2469 C5            1 RES     
   31446 C5        -439.4209  -325.5351   641.8309 C5            1 RES     
   31447 C5        -439.4490  -326.7713   642.7704 C5            1 RES     
   31448 C5        -440.3702  -326.5631   643.9794 C5            1 RES     
   31449 C5        -440.1878  -327.6222   645.0900 C5            1 RES     
   31450 C5        -441.3600  -327.6061   646.0959 C5            1 RES     
   31451 C5        -441.6282  -326.2613   646.8034 C5            1 RES     
   31452 C5        -440.5309  -325.7964   647.7789 C5            1 RES     
   31453 C5        -440.2774  -326.7419   648.9697 C5            1 RES     
   31454 C5        -441.5121  -326.9576   649.8493 C5            1 RES     
   31455 H6        -429.6491  -336.3540   640.3883 H6            1 RES     
   31456 H6        -428.9198  -335.4217   641.7482 H6            1 RES     
   31457 H6        -430.1271  -336.7078   642.0706 H6            1 RES     
   31458 H6        -431.9057  -335.4304   640.9223 H6            1 RES     
   31459 H6        -431.2324  -334.4619   642.2922 H6            1 RES     
   31460 H6        -429.8712  -333.0950   640.6423 H6            1 RES     
   31461 H6        -430.4197  -334.1885   639.3484 H6            1 RES     
   31462 H6        -432.7833  -333.4196   639.5361 H6            1 RES     
   31463 H6        -431.6214  -332.1660   638.9714 H6            1 RES     
   31464 H6        -431.7559  -330.9580   641.1388 H6            1 RES     
   31465 H6        -432.7637  -332.2613   641.7780 H6            1 RES     
   31466 H6        -434.1931  -330.3928   641.5692 H6            1 RES     
   31467 H6        -434.7600  -331.6035   640.3828 H6            1 RES     
   31468 H6        -433.3744  -328.9259   639.8432 H6            1 RES     
   31469 H6        -433.9652  -329.9091   638.5114 H6            1 RES     
   31470 H6        -435.0342  -327.5701   638.9999 H6            1 RES     
   31471 H6        -435.7159  -328.1639   640.5128 H6            1 RES     
   31472 H6        -436.8185  -328.6952   637.6038 H6            1 RES     
   31473 H6        -437.4744  -329.3656   639.1104 H6            1 RES     
   31474 H6        -438.8167  -327.2668   639.5896 H6            1 RES     
   31475 H6        -439.2763  -328.2346   638.2114 H6            1 RES     
   31476 H6        -439.2696  -326.5586   636.6348 H6            1 RES     
   31477 H6        -437.8586  -324.5153   636.5716 H6            1 RES     
   31478 H6        -437.1934  -326.1284   636.7587 H6            1 RES     
   31479 H6        -436.7416  -325.7617   639.2606 H6            1 RES     
   31480 H6        -437.1372  -324.0471   638.9315 H6            1 RES     
   31481 H6        -435.1687  -324.1456   637.1713 H6            1 RES     
   31482 H6        -434.8140  -325.7739   637.6952 H6            1 RES     
   31483 H6        -433.2566  -324.0903   638.7332 H6            1 RES     
   31484 H6        -434.1327  -325.0400   639.9615 H6            1 RES     
   31485 H6        -435.6831  -323.2625   640.3988 H6            1 RES     
   31486 H6        -434.0632  -322.6403   640.6596 H6            1 RES     
   31487 H6        -435.1537  -322.1649   637.8354 H6            1 RES     
   31488 H6        -436.1089  -321.4621   639.1411 H6            1 RES     
   31489 H6        -434.2567  -320.1354   639.9591 H6            1 RES     
   31490 H6        -434.5593  -319.8637   638.2052 H6            1 RES     
   31491 H6        -432.5944  -321.3331   637.6417 H6            1 RES     
   31492 H6        -432.1590  -319.9076   638.6595 H6            1 RES     
   31493 H6        -432.2685  -321.5363   639.4159 H6            1 RES     
   31494 H6        -441.2023  -325.6260   636.2963 H6            1 RES     
   31495 H6        -440.5501  -324.1707   636.8618 H6            1 RES     
   31496 H6        -442.0154  -323.4457   639.4059 H6            1 RES     
   31497 H6        -443.4691  -324.3855   639.8918 H6            1 RES     
   31498 H6        -440.7600  -325.8584   639.4349 H6            1 RES     
   31499 H6        -441.5431  -327.5231   640.8680 H6            1 RES     
   31500 H6        -442.9571  -326.5432   641.3623 H6            1 RES     
   31501 H6        -443.5269  -328.4415   639.9278 H6            1 RES     
   31502 H6        -444.0486  -326.8601   639.2427 H6            1 RES     
   31503 H6        -442.3881  -326.9797   637.5172 H6            1 RES     
   31504 H6        -441.4636  -328.2742   638.3150 H6            1 RES     
   31505 H6        -442.6808  -328.9809   636.2832 H6            1 RES     
   31506 H6        -443.2487  -329.8102   637.7841 H6            1 RES     
   31507 H6        -445.1528  -328.1709   637.9196 H6            1 RES     
   31508 H6        -444.6665  -327.4472   636.3423 H6            1 RES     
   31509 H6        -445.0957  -329.6780   635.2528 H6            1 RES     
   31510 H6        -445.3280  -330.4177   636.8920 H6            1 RES     
   31511 H6        -447.0819  -328.2832   635.6220 H6            1 RES     
   31512 H6        -447.2371  -328.8618   637.3463 H6            1 RES     
   31513 H6        -447.6007  -330.5164   634.7975 H6            1 RES     
   31514 H6        -448.8812  -329.9454   635.9473 H6            1 RES     
   31515 H6        -447.6567  -331.1510   636.5036 H6            1 RES     
   31516 H6        -441.4042  -324.5638   642.0634 H6            1 RES     
   31517 H6        -440.3088  -323.9455   640.7910 H6            1 RES     
   31518 H6        -438.6893  -325.7229   641.0224 H6            1 RES     
   31519 H6        -438.9464  -324.7395   642.4456 H6            1 RES     
   31520 H6        -439.7241  -327.7047   642.2365 H6            1 RES     
   31521 H6        -438.4052  -326.9141   643.1418 H6            1 RES     
   31522 H6        -441.4092  -326.5951   643.5931 H6            1 RES     
   31523 H6        -440.1701  -325.5683   644.4308 H6            1 RES     
   31524 H6        -439.2136  -327.4713   645.6100 H6            1 RES     
   31525 H6        -440.1713  -328.6391   644.6408 H6            1 RES     
   31526 H6        -441.2195  -328.4086   646.8505 H6            1 RES     
   31527 H6        -442.2771  -327.8631   645.5232 H6            1 RES     
   31528 H6        -442.5850  -326.3441   647.3581 H6            1 RES     
   31529 H6        -441.7892  -325.4712   646.0414 H6            1 RES     
   31530 H6        -439.5800  -325.6529   647.2239 H6            1 RES     
   31531 H6        -440.8340  -324.8054   648.1843 H6            1 RES     
   31532 H6        -439.9045  -327.7233   648.6116 H6            1 RES     
   31533 H6        -439.4824  -326.2896   649.6016 H6            1 RES     
   31534 H6        -441.8896  -325.9867   650.2354 H6            1 RES     
   31535 H6        -442.3202  -327.4698   649.2880 H6            1 RES     
   31536 H6        -441.2435  -327.6018   650.7129 H6            1 RES     
   31537 C0        -457.5395  -319.8156   635.1342 C0            1 RES     
   31538 C0        -457.2249  -321.5599   635.6634 C0            1 RES     
   31539 C0        -457.2174  -321.6116   637.0515 C0            1 RES     
   31540 S1        -456.6331  -323.0692   637.7485 S1            1 RES     
   31541 C0        -456.2388  -323.9859   636.4221 C0            1 RES     
   31542 C0        -456.6598  -323.0078   635.2881 C0            1 RES     
   31543 C0        -457.1322  -320.2814   637.6556 C0            1 RES     
   31544 C0        -456.6519  -319.5842   636.3932 C0            1 RES     
   31545 C0        -455.2941  -319.4967   636.3670 C0            1 RES     
   31546 C0        -454.6460  -319.8889   637.5358 C0            1 RES     
   31547 S1        -455.7412  -320.3364   638.8551 S1            1 RES     
   31548 H2        -456.4208  -323.3127   634.2764 H2            1 RES     
   31549 H2        -454.7259  -319.3426   635.4643 H2            1 RES     
   31550 N3        -454.4494  -326.7644   638.6652 N3            1 RES     
   31551 C0        -455.0222  -325.6556   638.1725 C0            1 RES     
   31552 C0        -455.5211  -325.4744   636.7976 C0            1 RES     
   31553 C0        -455.2685  -326.7252   636.0520 C0            1 RES     
   31554 N3        -455.5872  -326.9384   634.7359 N3            1 RES     
   31555 S1        -455.1066  -328.5099   634.4625 S1            1 RES     
   31556 N3        -454.4704  -328.9881   635.9104 N3            1 RES     
   31557 C0        -454.6378  -327.8954   636.6673 C0            1 RES     
   31558 C0        -454.2218  -327.9162   637.9759 C0            1 RES     
   31559 H4        -455.0849  -324.8640   638.8857 H4            1 RES     
   31560 C5        -468.2410  -303.6432   635.5150 C5            1 RES     
   31561 C5        -467.5835  -305.0517   635.4664 C5            1 RES     
   31562 C5        -466.5898  -305.2444   634.2741 C5            1 RES     
   31563 C5        -465.6189  -306.5234   634.2854 C5            1 RES     
   31564 C5        -466.1688  -307.9818   633.9743 C5            1 RES     
   31565 C5        -465.2701  -309.3650   634.2115 C5            1 RES     
   31566 C5        -464.0392  -309.9522   633.2768 C5            1 RES     
   31567 C5        -463.3151  -311.5508   633.2591 C5            1 RES     
   31568 C5        -462.0461  -312.2891   634.1277 C5            1 RES     
   31569 C5        -461.2600  -313.8987   634.3158 C5            1 RES     
   31570 C5        -459.9854  -314.8816   633.5515 C5            1 RES     
   31571 C5        -460.0950  -314.2257   632.0578 C5            1 RES     
   31572 C5        -461.4854  -314.1905   631.2738 C5            1 RES     
   31573 C5        -461.6064  -313.1016   630.1214 C5            1 RES     
   31574 C5        -462.9031  -313.1832   629.2279 C5            1 RES     
   31575 C5        -463.1744  -314.5860   628.6417 C5            1 RES     
   31576 C5        -461.9834  -315.1868   627.8564 C5            1 RES     
   31577 C5        -462.1887  -315.3640   626.3474 C5            1 RES     
   31578 C5        -462.4682  -314.0733   625.5853 C5            1 RES     
   31579 C5        -458.9036  -316.4969   633.9000 C5            1 RES     
   31580 C0        -458.7301  -318.2590   634.7346 C0            1 RES     
   31581 C5        -460.1895  -318.7705   634.6268 C5            1 RES     
   31582 C5        -461.3481  -317.7027   634.9313 C5            1 RES     
   31583 C5        -461.6712  -317.5654   636.4291 C5            1 RES     
   31584 C5        -460.4882  -317.3281   637.3959 C5            1 RES     
   31585 C5        -459.5653  -316.1376   637.0557 C5            1 RES     
   31586 C5        -458.6299  -315.7153   638.1811 C5            1 RES     
   31587 C5        -457.7845  -316.8778   638.7026 C5            1 RES     
   31588 C5        -457.0540  -316.4771   639.9801 C5            1 RES     
   31589 C5        -456.4896  -317.7241   640.6471 C5            1 RES     
   31590 C5        -455.9267  -317.4475   642.0224 C5            1 RES     
   31591 C5        -462.6180  -317.9778   634.0558 C5            1 RES     
   31592 C5        -463.7201  -316.8795   633.7993 C5            1 RES     
   31593 C5        -464.7618  -316.4612   634.8725 C5            1 RES     
   31594 C5        -465.5188  -317.6644   635.4494 C5            1 RES     
   31595 C5        -466.7666  -317.2767   636.2746 C5            1 RES     
   31596 C5        -467.2757  -318.4558   637.1328 C5            1 RES     
   31597 C5        -467.6322  -319.7475   636.3675 C5            1 RES     
   31598 C5        -468.8528  -319.6478   635.4336 C5            1 RES     
   31599 C5        -470.1830  -319.3125   636.1369 C5            1 RES     
   31600 C5        -470.5880  -320.3419   637.1958 C5            1 RES     
   31601 H6        -467.4788  -302.8378   635.6218 H6            1 RES     
   31602 H6        -468.8534  -303.4255   634.6142 H6            1 RES     
   31603 H6        -468.9140  -303.5561   636.4016 H6            1 RES     
   31604 H6        -467.0315  -305.1591   636.4234 H6            1 RES     
   31605 H6        -468.3900  -305.8115   635.4251 H6            1 RES     
   31606 H6        -467.1472  -305.1414   633.3157 H6            1 RES     
   31607 H6        -465.9218  -304.3524   634.3388 H6            1 RES     
   31608 H6        -465.1401  -306.5224   635.2838 H6            1 RES     
   31609 H6        -464.8446  -306.3137   633.5204 H6            1 RES     
   31610 H6        -466.6161  -307.9613   632.9525 H6            1 RES     
   31611 H6        -467.0425  -308.0604   634.6646 H6            1 RES     
   31612 H6        -466.0626  -310.1416   634.1291 H6            1 RES     
   31613 H6        -464.9474  -309.3305   635.2663 H6            1 RES     
   31614 H6        -464.5418  -309.8776   632.2803 H6            1 RES     
   31615 H6        -463.2499  -309.1734   633.2418 H6            1 RES     
   31616 H6        -462.9711  -311.5604   632.2040 H6            1 RES     
   31617 H6        -464.2136  -312.2043   633.2754 H6            1 RES     
   31618 H6        -461.2170  -311.5588   634.0265 H6            1 RES     
   31619 H6        -462.4742  -312.1344   635.1390 H6            1 RES     
   31620 H6        -462.1256  -314.5530   634.4570 H6            1 RES     
   31621 H6        -460.8352  -313.7519   635.3176 H6            1 RES     
   31622 H6        -459.1324  -314.2297   633.8455 H6            1 RES     
   31623 H6        -459.2702  -314.5330   631.3840 H6            1 RES     
   31624 H6        -459.9204  -313.1277   632.2097 H6            1 RES     
   31625 H6        -462.3346  -313.9653   631.9490 H6            1 RES     
   31626 H6        -461.6341  -315.1985   630.8568 H6            1 RES     
   31627 H6        -460.7243  -313.1472   629.4612 H6            1 RES     
   31628 H6        -461.5771  -312.0676   630.5377 H6            1 RES     
   31629 H6        -462.8367  -312.4463   628.3913 H6            1 RES     
   31630 H6        -463.8006  -312.8941   629.8224 H6            1 RES     
   31631 H6        -463.3875  -315.2368   629.5124 H6            1 RES     
   31632 H6        -464.1109  -314.6180   628.0383 H6            1 RES     
   31633 H6        -461.0464  -314.6311   628.0264 H6            1 RES     
   31634 H6        -461.8067  -316.2054   628.2605 H6            1 RES     
   31635 H6        -463.0214  -316.0766   626.1706 H6            1 RES     
   31636 H6        -461.2550  -315.8138   625.9424 H6            1 RES     
   31637 H6        -461.6530  -313.3364   625.7383 H6            1 RES     
   31638 H6        -462.5337  -314.3115   624.5009 H6            1 RES     
   31639 H6        -463.4362  -313.6339   625.9021 H6            1 RES     
   31640 H6        -457.9939  -316.0163   634.3269 H6            1 RES     
   31641 H6        -458.5300  -316.6966   632.8734 H6            1 RES     
   31642 H6        -460.2482  -319.0863   633.5675 H6            1 RES     
   31643 H6        -460.3204  -319.6639   635.2686 H6            1 RES     
   31644 H6        -461.0817  -316.7145   634.6058 H6            1 RES     
   31645 H6        -462.3745  -316.7222   636.5466 H6            1 RES     
   31646 H6        -462.1817  -318.4884   636.7633 H6            1 RES     
   31647 H6        -460.9393  -317.1542   638.3949 H6            1 RES     
   31648 H6        -459.8854  -318.2593   637.4409 H6            1 RES     
   31649 H6        -458.9012  -316.4179   636.2620 H6            1 RES     
   31650 H6        -460.1594  -315.2599   636.7548 H6            1 RES     
   31651 H6        -457.9577  -314.9026   637.8198 H6            1 RES     
   31652 H6        -459.2647  -315.3155   638.9963 H6            1 RES     
   31653 H6        -458.4680  -317.7023   638.9799 H6            1 RES     
   31654 H6        -457.0773  -317.2504   637.9264 H6            1 RES     
   31655 H6        -456.2529  -315.7361   639.7636 H6            1 RES     
   31656 H6        -457.7934  -316.0269   640.6749 H6            1 RES     
   31657 H6        -455.6793  -318.1099   640.0141 H6            1 RES     
   31658 H6        -457.3015  -318.4809   640.7641 H6            1 RES     
   31659 H6        -455.0678  -316.7523   641.9426 H6            1 RES     
   31660 H6        -455.5883  -318.4086   642.4654 H6            1 RES     
   31661 H6        -456.7170  -317.0133   642.6698 H6            1 RES     
   31662 H6        -463.0846  -318.9338   634.3534 H6            1 RES     
   31663 H6        -462.2075  -318.1104   633.0291 H6            1 RES     
   31664 H6        -463.2623  -315.9652   633.3768 H6            1 RES     
   31665 H6        -464.3370  -317.2825   632.9668 H6            1 RES     
   31666 H6        -464.3108  -315.8644   635.6925 H6            1 RES     
   31667 H6        -465.4968  -315.7933   634.3611 H6            1 RES     
   31668 H6        -464.7979  -318.2132   636.0889 H6            1 RES     
   31669 H6        -465.8578  -318.3212   634.6204 H6            1 RES     
   31670 H6        -467.5701  -316.8963   635.6024 H6            1 RES     
   31671 H6        -466.5100  -316.4587   636.9826 H6            1 RES     
   31672 H6        -468.1419  -318.1287   637.7460 H6            1 RES     
   31673 H6        -466.4598  -318.7110   637.8428 H6            1 RES     
   31674 H6        -467.8164  -320.5520   637.1083 H6            1 RES     
   31675 H6        -466.7538  -320.0781   635.7758 H6            1 RES     
   31676 H6        -468.6572  -318.8856   634.6503 H6            1 RES     
   31677 H6        -468.9710  -320.6292   634.9227 H6            1 RES     
   31678 H6        -470.1317  -318.3067   636.6018 H6            1 RES     
   31679 H6        -470.9810  -319.2859   635.3633 H6            1 RES     
   31680 H6        -470.6650  -321.3544   636.7452 H6            1 RES     
   31681 H6        -469.8595  -320.3654   638.0319 H6            1 RES     
   31682 H6        -471.5766  -320.0670   637.6202 H6            1 RES     
   31683 C0        -450.2471  -330.4291   640.1811 C0            1 RES     
   31684 C0        -451.1078  -329.3056   641.3720 C0            1 RES     
   31685 C0        -452.3990  -329.7753   641.5764 C0            1 RES     
   31686 S1        -453.4676  -328.7099   642.3979 S1            1 RES     
   31687 C0        -452.5209  -327.3763   642.6814 C0            1 RES     
   31688 C0        -451.1788  -327.8674   642.0671 C0            1 RES     
   31689 C0        -452.7879  -330.7783   640.5842 C0            1 RES     
   31690 C0        -451.6896  -330.4289   639.5932 C0            1 RES     
   31691 C0        -452.1349  -329.5465   638.6578 C0            1 RES     
   31692 C0        -453.5023  -329.2830   638.6860 C0            1 RES     
   31693 S1        -454.3973  -330.2313   639.8860 S1            1 RES     
   31694 H2        -450.3758  -327.1416   642.0228 H2            1 RES     
   31695 H2        -451.4809  -328.9254   638.0679 H2            1 RES     
   31696 N3        -455.6418  -325.2180   643.9284 N3            1 RES     
   31697 C0        -454.8179  -326.1299   643.3900 C0            1 RES     
   31698 C0        -453.3449  -326.0827   643.4021 C0            1 RES     
   31699 C0        -452.9336  -324.8472   644.1011 C0            1 RES     
   31700 N3        -451.6380  -324.4492   644.3054 N3            1 RES     
   31701 S1        -451.7913  -323.0279   645.1609 S1            1 RES     
   31702 N3        -453.4249  -322.8203   645.2962 N3            1 RES     
   31703 C0        -453.9004  -323.9018   644.6643 C0            1 RES     
   31704 C0        -455.2589  -324.0827   644.5751 C0            1 RES     
   31705 H4        -455.3354  -326.9336   642.9151 H4            1 RES     
   31706 C5        -444.3782  -348.1002   634.7493 C5            1 RES     
   31707 C5        -444.7775  -346.7431   635.3955 C5            1 RES     
   31708 C5        -444.0594  -345.5063   634.7626 C5            1 RES     
   31709 C5        -444.6060  -344.0388   635.1179 C5            1 RES     
   31710 C5        -444.3415  -343.3795   636.5397 C5            1 RES     
   31711 C5        -445.0864  -341.9781   637.0478 C5            1 RES     
   31712 C5        -444.7492  -340.4240   636.5953 C5            1 RES     
   31713 C5        -445.2291  -338.9128   637.3475 C5            1 RES     
   31714 C5        -446.5919  -337.8964   637.2063 C5            1 RES     
   31715 C5        -447.2854  -336.4110   637.9524 C5            1 RES     
   31716 C5        -447.1801  -334.6394   637.7939 C5            1 RES     
   31717 C5        -445.6648  -334.5826   637.1821 C5            1 RES     
   31718 C5        -444.4421  -335.2687   637.9458 C5            1 RES     
   31719 C5        -443.1730  -335.6179   637.0537 C5            1 RES     
   31720 C5        -441.9000  -336.1260   637.8331 C5            1 RES     
   31721 C5        -441.4723  -335.2109   639.0014 C5            1 RES     
   31722 C5        -441.2607  -333.7302   638.6029 C5            1 RES     
   31723 C5        -439.8220  -333.2069   638.6839 C5            1 RES     
   31724 C5        -438.8265  -333.9347   637.7871 C5            1 RES     
   31725 C5        -448.1275  -333.0069   638.3754 C5            1 RES     
   31726 C0        -449.2225  -332.0802   639.7073 C0            1 RES     
   31727 C5        -448.6809  -332.7152   641.0136 C5            1 RES     
   31728 C5        -448.3905  -334.2931   640.9773 C5            1 RES     
   31729 C5        -449.6372  -335.1482   641.2622 C5            1 RES     
   31730 C5        -450.9142  -334.8430   640.4457 C5            1 RES     
   31731 C5        -450.7504  -334.8400   638.9101 C5            1 RES     
   31732 C5        -452.0581  -334.8788   638.1303 C5            1 RES     
   31733 C5        -453.0135  -333.7572   638.5394 C5            1 RES     
   31734 C5        -454.3919  -333.9780   637.9252 C5            1 RES     
   31735 C5        -455.3944  -333.0483   638.5954 C5            1 RES     
   31736 C5        -456.8220  -333.3412   638.1944 C5            1 RES     
   31737 C5        -447.1725  -334.6672   641.8891 C5            1 RES     
   31738 C5        -446.3800  -336.0206   641.7249 C5            1 RES     
   31739 C5        -446.9375  -337.3893   642.2022 C5            1 RES     
   31740 C5        -447.3806  -337.3575   643.6706 C5            1 RES     
   31741 C5        -447.6406  -338.7570   644.2723 C5            1 RES     
   31742 C5        -448.4277  -338.6739   645.5987 C5            1 RES     
   31743 C5        -447.7879  -337.8218   646.7148 C5            1 RES     
   31744 C5        -446.4775  -338.3776   647.3029 C5            1 RES     
   31745 C5        -446.6036  -339.7558   647.9820 C5            1 RES     
   31746 C5        -447.5905  -339.7695   649.1528 C5            1 RES     
   31747 H6        -444.6273  -348.1270   633.6639 H6            1 RES     
   31748 H6        -443.2968  -348.3270   634.8639 H6            1 RES     
   31749 H6        -444.9440  -348.9394   635.2207 H6            1 RES     
   31750 H6        -445.8727  -346.6479   635.2424 H6            1 RES     
   31751 H6        -444.5663  -346.7994   636.4826 H6            1 RES     
   31752 H6        -442.9616  -345.6020   634.9224 H6            1 RES     
   31753 H6        -444.2231  -345.6369   633.6662 H6            1 RES     
   31754 H6        -445.6972  -344.0771   634.9340 H6            1 RES     
   31755 H6        -444.1439  -343.3623   634.3711 H6            1 RES     
   31756 H6        -443.2367  -343.3247   636.6842 H6            1 RES     
   31757 H6        -444.6796  -344.1795   637.2410 H6            1 RES     
   31758 H6        -444.8448  -341.9991   638.1337 H6            1 RES     
   31759 H6        -446.1692  -342.1650   636.9449 H6            1 RES     
   31760 H6        -443.6399  -340.4504   636.7371 H6            1 RES     
   31761 H6        -444.8810  -340.3637   635.4954 H6            1 RES     
   31762 H6        -444.3793  -338.2858   637.0063 H6            1 RES     
   31763 H6        -445.0225  -339.1200   638.4194 H6            1 RES     
   31764 H6        -446.6841  -337.7541   636.1098 H6            1 RES     
   31765 H6        -447.3498  -338.6565   637.4853 H6            1 RES     
   31766 H6        -447.2059  -336.6410   639.0192 H6            1 RES     
   31767 H6        -448.3387  -336.5797   637.6925 H6            1 RES     
   31768 H6        -447.6570  -334.5757   636.7902 H6            1 RES     
   31769 H6        -445.3822  -333.5784   636.8075 H6            1 RES     
   31770 H6        -445.7030  -335.2124   636.2542 H6            1 RES     
   31771 H6        -444.7296  -336.2382   638.3985 H6            1 RES     
   31772 H6        -444.1551  -334.5810   638.7563 H6            1 RES     
   31773 H6        -442.8842  -334.7447   636.4452 H6            1 RES     
   31774 H6        -443.4130  -336.4033   636.2995 H6            1 RES     
   31775 H6        -441.0415  -336.2403   637.1279 H6            1 RES     
   31776 H6        -442.0863  -337.1395   638.2582 H6            1 RES     
   31777 H6        -442.2972  -335.2638   639.7388 H6            1 RES     
   31778 H6        -440.5875  -335.6102   639.5489 H6            1 RES     
   31779 H6        -441.6676  -333.5029   637.6036 H6            1 RES     
   31780 H6        -441.8487  -333.1136   639.3145 H6            1 RES     
   31781 H6        -439.4694  -333.2612   639.7352 H6            1 RES     
   31782 H6        -439.8473  -332.1363   638.3812 H6            1 RES     
   31783 H6        -439.1473  -333.8989   636.7256 H6            1 RES     
   31784 H6        -437.8383  -333.4325   637.8773 H6            1 RES     
   31785 H6        -438.7092  -334.9897   638.1088 H6            1 RES     
   31786 H6        -448.7729  -332.8448   637.4821 H6            1 RES     
   31787 H6        -447.3429  -332.2500   638.1635 H6            1 RES     
   31788 H6        -447.7298  -332.1686   641.1616 H6            1 RES     
   31789 H6        -449.3600  -332.4749   641.8550 H6            1 RES     
   31790 H6        -448.0372  -334.6163   640.0160 H6            1 RES     
   31791 H6        -449.3696  -336.2047   641.0835 H6            1 RES     
   31792 H6        -449.9020  -335.0363   642.3305 H6            1 RES     
   31793 H6        -451.6497  -335.6265   640.7233 H6            1 RES     
   31794 H6        -451.3091  -333.8591   640.7752 H6            1 RES     
   31795 H6        -450.2959  -333.9188   638.6029 H6            1 RES     
   31796 H6        -450.1304  -335.6906   638.5845 H6            1 RES     
   31797 H6        -451.8422  -334.8007   637.0393 H6            1 RES     
   31798 H6        -452.5249  -335.8633   638.3307 H6            1 RES     
   31799 H6        -453.1496  -333.8050   639.6362 H6            1 RES     
   31800 H6        -452.6043  -332.7547   638.2769 H6            1 RES     
   31801 H6        -454.3661  -333.8195   636.8243 H6            1 RES     
   31802 H6        -454.7029  -335.0219   638.1392 H6            1 RES     
   31803 H6        -455.1559  -332.0193   638.2948 H6            1 RES     
   31804 H6        -455.3268  -333.1680   639.7031 H6            1 RES     
   31805 H6        -456.9497  -333.1641   637.1083 H6            1 RES     
   31806 H6        -457.4947  -332.6646   638.7640 H6            1 RES     
   31807 H6        -457.0736  -334.3923   638.4473 H6            1 RES     
   31808 H6        -447.4242  -334.4911   642.9501 H6            1 RES     
   31809 H6        -446.3908  -333.9275   641.6026 H6            1 RES     
   31810 H6        -446.0162  -336.1308   640.6858 H6            1 RES     
   31811 H6        -445.4528  -335.8833   642.3229 H6            1 RES     
   31812 H6        -447.7652  -337.7579   641.5611 H6            1 RES     
   31813 H6        -446.1046  -338.1266   642.1002 H6            1 RES     
   31814 H6        -448.3089  -336.7518   643.7067 H6            1 RES     
   31815 H6        -446.5933  -336.8712   644.2848 H6            1 RES     
   31816 H6        -446.6779  -339.3008   644.4129 H6            1 RES     
   31817 H6        -448.2628  -339.3572   643.5731 H6            1 RES     
   31818 H6        -448.6368  -339.6968   645.9772 H6            1 RES     
   31819 H6        -449.4110  -338.2146   645.3595 H6            1 RES     
   31820 H6        -448.5263  -337.7103   647.5348 H6            1 RES     
   31821 H6        -447.6036  -336.7962   646.3338 H6            1 RES     
   31822 H6        -445.7104  -338.4391   646.5026 H6            1 RES     
   31823 H6        -446.1107  -337.6516   648.0623 H6            1 RES     
   31824 H6        -446.9005  -340.5262   647.2412 H6            1 RES     
   31825 H6        -445.6022  -340.0353   648.3758 H6            1 RES     
   31826 H6        -447.2988  -339.0177   649.9169 H6            1 RES     
   31827 H6        -448.6244  -339.5623   648.8085 H6            1 RES     
   31828 H6        -447.5897  -340.7740   649.6259 H6            1 RES     
   31829 C0        -459.0816  -320.5846   644.2222 C0            1 RES     
   31830 C0        -459.7067  -322.3181   644.0622 C0            1 RES     
   31831 C0        -459.5066  -322.9787   645.2676 C0            1 RES     
   31832 S1        -459.7256  -324.6825   645.2391 S1            1 RES     
   31833 C0        -460.1243  -324.9816   643.6558 C0            1 RES     
   31834 C0        -460.1079  -323.5294   643.0986 C0            1 RES     
   31835 C0        -458.6028  -322.2481   646.1571 C0            1 RES     
   31836 C0        -458.0265  -321.3558   645.0698 C0            1 RES     
   31837 C0        -456.8733  -321.8756   644.5681 C0            1 RES     
   31838 C0        -456.3740  -322.9870   645.2429 C0            1 RES     
   31839 S1        -457.3049  -323.4385   646.6816 S1            1 RES     
   31840 H2        -460.2440  -323.4228   642.0291 H2            1 RES     
   31841 H2        -456.4686  -321.6053   643.6065 H2            1 RES     
   31842 N3        -459.8432  -328.9343   644.1565 N3            1 RES     
   31843 C0        -459.7755  -327.5981   644.2590 C0            1 RES     
   31844 C0        -460.3031  -326.6255   643.2854 C0            1 RES     
   31845 C0        -460.9096  -327.3805   642.1690 C0            1 RES     
   31846 N3        -461.4991  -326.8210   641.0652 N3            1 RES     
   31847 S1        -462.0216  -328.1365   640.1866 S1            1 RES     
   31848 N3        -461.5348  -329.4337   641.0867 N3            1 RES     
   31849 C0        -460.9444  -328.8445   642.1352 C0            1 RES     
   31850 C0        -460.4063  -329.6261   643.1280 C0            1 RES     
   31851 H4        -459.2735  -327.2705   645.1421 H4            1 RES     
   31852 C5        -458.7966  -303.4233   653.2568 C5            1 RES     
   31853 C5        -459.0481  -304.7898   652.5583 C5            1 RES     
   31854 C5        -458.5345  -304.8490   651.0822 C5            1 RES     
   31855 C5        -458.4487  -306.2795   650.3580 C5            1 RES     
   31856 C5        -459.7561  -307.0351   649.8618 C5            1 RES     
   31857 C5        -459.7507  -308.6154   649.3331 C5            1 RES     
   31858 C5        -459.2208  -309.2012   647.8806 C5            1 RES     
   31859 C5        -459.5184  -310.7590   647.1291 C5            1 RES     
   31860 C5        -458.7519  -312.2810   647.2077 C5            1 RES     
   31861 C5        -458.9718  -313.9662   646.6112 C5            1 RES     
   31862 C5        -458.5983  -314.9555   645.1772 C5            1 RES     
   31863 C5        -458.5638  -313.7320   644.0930 C5            1 RES     
   31864 C5        -459.8055  -312.7420   643.9288 C5            1 RES     
   31865 C5        -459.4856  -311.3278   643.2762 C5            1 RES     
   31866 C5        -460.7331  -310.4216   642.9464 C5            1 RES     
   31867 C5        -461.8263  -311.1345   642.1206 C5            1 RES     
   31868 C5        -461.3125  -311.7796   640.8107 C5            1 RES     
   31869 C5        -461.8204  -311.1564   639.5053 C5            1 RES     
   31870 C5        -461.4555  -309.6883   639.3145 C5            1 RES     
   31871 C5        -458.5541  -316.8471   644.6106 C5            1 RES     
   31872 C0        -459.2553  -318.6679   644.7669 C0            1 RES     
   31873 C5        -460.7481  -318.3741   645.0644 C5            1 RES     
   31874 C5        -461.0536  -317.1655   646.0750 C5            1 RES     
   31875 C5        -461.0012  -317.5816   647.5551 C5            1 RES     
   31876 C5        -459.7484  -318.3488   648.0372 C5            1 RES     
   31877 C5        -458.3893  -317.6773   647.7426 C5            1 RES     
   31878 C5        -457.2108  -318.2616   648.5104 C5            1 RES     
   31879 C5        -457.0811  -319.7727   648.3165 C5            1 RES     
   31880 C5        -456.0575  -320.3509   649.2881 C5            1 RES     
   31881 C5        -456.1807  -321.8685   649.3021 C5            1 RES     
   31882 C5        -455.3471  -322.5127   650.3860 C5            1 RES     
   31883 C5        -462.3837  -316.4300   645.6946 C5            1 RES     
   31884 C5        -462.7162  -314.9732   646.1987 C5            1 RES     
   31885 C5        -463.1630  -314.6642   647.6536 C5            1 RES     
   31886 C5        -464.3556  -315.5240   648.0916 C5            1 RES     
   31887 C5        -465.0275  -315.0375   649.3955 C5            1 RES     
   31888 C5        -465.9593  -316.1130   649.9964 C5            1 RES     
   31889 C5        -467.0891  -316.6220   649.0769 C5            1 RES     
   31890 C5        -468.1805  -315.5902   648.7362 C5            1 RES     
   31891 C5        -468.9683  -315.0540   649.9480 C5            1 RES     
   31892 C5        -469.6998  -316.1480   650.7309 C5            1 RES     
   31893 H6        -457.7105  -303.1797   653.3033 H6            1 RES     
   31894 H6        -459.3205  -302.5828   652.7539 H6            1 RES     
   31895 H6        -459.1558  -303.4522   654.3136 H6            1 RES     
   31896 H6        -458.5033  -305.5426   653.1654 H6            1 RES     
   31897 H6        -460.1345  -305.0074   652.5994 H6            1 RES     
   31898 H6        -459.0864  -304.0965   650.4746 H6            1 RES     
   31899 H6        -457.4842  -304.4775   651.1518 H6            1 RES     
   31900 H6        -457.8970  -306.9340   651.0603 H6            1 RES     
   31901 H6        -457.8228  -306.1181   649.4575 H6            1 RES     
   31902 H6        -460.2738  -306.3674   649.1334 H6            1 RES     
   31903 H6        -460.4025  -307.0172   650.7718 H6            1 RES     
   31904 H6        -460.8416  -308.8340   649.3279 H6            1 RES     
   31905 H6        -459.2988  -309.1998   650.1530 H6            1 RES     
   31906 H6        -459.7498  -308.4782   647.2108 H6            1 RES     
   31907 H6        -458.1501  -308.9273   647.7842 H6            1 RES     
   31908 H6        -459.4119  -310.4495   646.0687 H6            1 RES     
   31909 H6        -460.6118  -310.8788   647.2862 H6            1 RES     
   31910 H6        -457.6861  -312.0330   647.0240 H6            1 RES     
   31911 H6        -458.8535  -312.4208   648.3031 H6            1 RES     
   31912 H6        -460.0188  -314.1566   646.8660 H6            1 RES     
   31913 H6        -458.3829  -314.4847   647.3793 H6            1 RES     
   31914 H6        -457.4931  -314.9548   645.3100 H6            1 RES     
   31915 H6        -458.1685  -314.0363   643.1032 H6            1 RES     
   31916 H6        -457.7881  -313.0209   644.4829 H6            1 RES     
   31917 H6        -460.2660  -312.4915   644.9049 H6            1 RES     
   31918 H6        -460.5526  -313.2766   643.3219 H6            1 RES     
   31919 H6        -458.8964  -311.4595   642.3534 H6            1 RES     
   31920 H6        -458.8218  -310.7199   643.9343 H6            1 RES     
   31921 H6        -460.4046  -309.5047   642.3997 H6            1 RES     
   31922 H6        -461.2106  -310.0641   643.8881 H6            1 RES     
   31923 H6        -462.2215  -311.9345   642.7770 H6            1 RES     
   31924 H6        -462.7056  -310.4776   641.9273 H6            1 RES     
   31925 H6        -460.2120  -311.8359   640.7749 H6            1 RES     
   31926 H6        -461.6680  -312.8312   640.8036 H6            1 RES     
   31927 H6        -462.9238  -311.2655   639.4504 H6            1 RES     
   31928 H6        -461.3721  -311.7394   638.6701 H6            1 RES     
   31929 H6        -460.3567  -309.5421   639.3619 H6            1 RES     
   31930 H6        -461.8149  -309.3631   638.3135 H6            1 RES     
   31931 H6        -461.9517  -309.0592   640.0815 H6            1 RES     
   31932 H6        -457.4763  -317.0640   644.7895 H6            1 RES     
   31933 H6        -458.5244  -316.7114   643.5088 H6            1 RES     
   31934 H6        -461.1410  -318.1235   644.0604 H6            1 RES     
   31935 H6        -461.2472  -319.2978   645.4176 H6            1 RES     
   31936 H6        -460.3406  -316.3684   645.9780 H6            1 RES     
   31937 H6        -461.0894  -316.6659   648.1663 H6            1 RES     
   31938 H6        -461.8761  -318.2239   647.7696 H6            1 RES     
   31939 H6        -459.8602  -318.4580   649.1361 H6            1 RES     
   31940 H6        -459.7650  -319.3608   647.5810 H6            1 RES     
   31941 H6        -458.1296  -317.8363   646.7146 H6            1 RES     
   31942 H6        -458.4363  -316.5972   647.9545 H6            1 RES     
   31943 H6        -456.2693  -317.7645   648.1798 H6            1 RES     
   31944 H6        -457.3770  -318.0319   649.5814 H6            1 RES     
   31945 H6        -458.0519  -320.2366   648.5738 H6            1 RES     
   31946 H6        -456.8345  -320.0304   647.2609 H6            1 RES     
   31947 H6        -455.0272  -320.0309   649.0164 H6            1 RES     
   31948 H6        -456.3004  -319.9822   650.3066 H6            1 RES     
   31949 H6        -455.8343  -322.2456   648.3306 H6            1 RES     
   31950 H6        -457.2446  -322.1516   649.4856 H6            1 RES     
   31951 H6        -454.2731  -322.3147   650.1998 H6            1 RES     
   31952 H6        -455.5325  -323.6081   650.3700 H6            1 RES     
   31953 H6        -455.6481  -322.1130   651.3768 H6            1 RES     
   31954 H6        -463.2469  -317.1012   645.8509 H6            1 RES     
   31955 H6        -462.2866  -316.2583   644.5985 H6            1 RES     
   31956 H6        -461.9032  -314.2751   645.9235 H6            1 RES     
   31957 H6        -463.5769  -314.6449   645.5763 H6            1 RES     
   31958 H6        -462.3324  -314.7627   648.3832 H6            1 RES     
   31959 H6        -463.4751  -313.5917   647.6709 H6            1 RES     
   31960 H6        -463.9684  -316.5543   648.2271 H6            1 RES     
   31961 H6        -465.1295  -315.5176   647.2949 H6            1 RES     
   31962 H6        -465.5806  -314.0873   649.2126 H6            1 RES     
   31963 H6        -464.2510  -314.8280   650.1631 H6            1 RES     
   31964 H6        -466.3870  -315.7480   650.9540 H6            1 RES     
   31965 H6        -465.3205  -316.9878   650.2446 H6            1 RES     
   31966 H6        -467.5666  -317.4970   649.5632 H6            1 RES     
   31967 H6        -466.6498  -317.0047   648.1327 H6            1 RES     
   31968 H6        -467.7239  -314.7344   648.1960 H6            1 RES     
   31969 H6        -468.9030  -316.0758   648.0431 H6            1 RES     
   31970 H6        -468.2943  -314.4994   650.6326 H6            1 RES     
   31971 H6        -469.7293  -314.3370   649.5703 H6            1 RES     
   31972 H6        -470.3962  -316.7029   650.0666 H6            1 RES     
   31973 H6        -468.9838  -316.8597   651.1903 H6            1 RES     
   31974 H6        -470.2867  -315.6858   651.5524 H6            1 RES     
   31975 C0        -458.1994  -334.3201   642.8613 C0            1 RES     
   31976 C0        -458.0886  -333.5937   644.5587 C0            1 RES     
   31977 C0        -459.3707  -333.4803   645.0811 C0            1 RES     
   31978 S1        -459.5212  -332.5431   646.5132 S1            1 RES     
   31979 C0        -457.9633  -332.0479   646.8012 C0            1 RES     
   31980 C0        -457.2379  -332.7503   645.6179 C0            1 RES     
   31981 C0        -460.4034  -333.6493   644.0581 C0            1 RES     
   31982 C0        -459.4716  -333.4215   642.8789 C0            1 RES     
   31983 C0        -459.4962  -332.1214   642.4777 C0            1 RES     
   31984 C0        -460.4624  -331.3247   643.0872 C0            1 RES     
   31985 S1        -461.5266  -332.2018   644.2002 S1            1 RES     
   31986 H2        -456.1868  -332.5197   645.4928 H2            1 RES     
   31987 H2        -458.7124  -331.6640   641.8963 H2            1 RES     
   31988 N3        -459.1159  -329.5416   649.6897 N3            1 RES     
   31989 C0        -459.0348  -330.3769   648.6428 C0            1 RES     
   31990 C0        -457.8037  -330.9961   648.1202 C0            1 RES     
   31991 C0        -456.6708  -330.5255   648.9446 C0            1 RES     
   31992 N3        -455.3592  -330.8784   648.7598 N3            1 RES     
   31993 S1        -454.5595  -330.0832   649.9859 S1            1 RES     
   31994 N3        -455.7569  -329.2600   650.7724 N3            1 RES     
   31995 C0        -456.8461  -329.6120   650.0762 C0            1 RES     
   31996 C0        -458.0702  -329.1134   650.4491 C0            1 RES     
   31997 H4        -459.9791  -330.5637   648.1816 H4            1 RES     
   31998 C5        -464.0721  -348.2700   630.7318 C5            1 RES     
   31999 C5        -463.5424  -347.3233   631.8461 C5            1 RES     
   32000 C5        -462.3718  -346.3952   631.3830 C5            1 RES     
   32001 C5        -461.9478  -345.1680   632.3278 C5            1 RES     
   32002 C5        -461.1383  -345.4029   633.6753 C5            1 RES     
   32003 C5        -460.8885  -344.2076   634.8092 C5            1 RES     
   32004 C5        -459.8242  -342.9442   634.7392 C5            1 RES     
   32005 C5        -459.2579  -341.8887   636.0219 C5            1 RES     
   32006 C5        -459.8302  -340.4320   636.7004 C5            1 RES     
   32007 C5        -459.4536  -339.2997   638.0495 C5            1 RES     
   32008 C5        -458.4110  -337.8950   638.3883 C5            1 RES     
   32009 C5        -457.2401  -338.2480   637.3031 C5            1 RES     
   32010 C5        -456.4992  -339.6622   637.3216 C5            1 RES     
   32011 C5        -455.7994  -340.0984   635.9621 C5            1 RES     
   32012 C5        -454.9163  -341.4030   636.0279 C5            1 RES     
   32013 C5        -453.8725  -341.3979   637.1660 C5            1 RES     
   32014 C5        -452.9428  -340.1603   637.1689 C5            1 RES     
   32015 C5        -451.4647  -340.4239   636.8589 C5            1 RES     
   32016 C5        -451.1989  -341.0322   635.4862 C5            1 RES     
   32017 C5        -458.1866  -336.4627   639.7296 C5            1 RES     
   32018 C0        -458.3537  -335.8488   641.5808 C0            1 RES     
   32019 C5        -458.0538  -337.1635   642.3454 C5            1 RES     
   32020 C5        -458.6971  -338.5054   641.7446 C5            1 RES     
   32021 C5        -460.1436  -338.7479   642.2088 C5            1 RES     
   32022 C5        -461.1483  -337.5831   642.0526 C5            1 RES     
   32023 C5        -461.2591  -336.9706   640.6393 C5            1 RES     
   32024 C5        -462.4738  -336.0767   640.4263 C5            1 RES     
   32025 C5        -462.5667  -334.9624   641.4693 C5            1 RES     
   32026 C5        -463.9135  -334.2527   641.3753 C5            1 RES     
   32027 C5        -464.1094  -333.3833   642.6099 C5            1 RES     
   32028 C5        -465.5020  -332.8028   642.7011 C5            1 RES     
   32029 C5        -457.7634  -339.7401   641.9866 C5            1 RES     
   32030 C5        -457.8927  -341.0720   641.1522 C5            1 RES     
   32031 C5        -459.0301  -342.1046   641.3800 C5            1 RES     
   32032 C5        -459.1389  -342.5367   642.8480 C5            1 RES     
   32033 C5        -460.0305  -343.7800   643.0659 C5            1 RES     
   32034 C5        -460.4146  -343.9572   644.5515 C5            1 RES     
   32035 C5        -459.2407  -344.0717   645.5465 C5            1 RES     
   32036 C5        -458.3843  -345.3450   645.4158 C5            1 RES     
   32037 C5        -459.1423  -346.6652   645.6585 C5            1 RES     
   32038 C5        -459.7681  -346.7604   647.0528 C5            1 RES     
   32039 H6        -464.4645  -347.6986   629.8598 H6            1 RES     
   32040 H6        -463.2962  -348.9754   630.3650 H6            1 RES     
   32041 H6        -464.9238  -348.8837   631.1121 H6            1 RES     
   32042 H6        -464.4086  -346.6973   632.1456 H6            1 RES     
   32043 H6        -463.2267  -347.9435   632.7093 H6            1 RES     
   32044 H6        -461.5026  -347.0256   631.0882 H6            1 RES     
   32045 H6        -462.7537  -345.9374   630.4393 H6            1 RES     
   32046 H6        -462.8897  -344.6342   632.5598 H6            1 RES     
   32047 H6        -461.3152  -344.5129   631.6958 H6            1 RES     
   32048 H6        -460.1824  -345.9124   633.4084 H6            1 RES     
   32049 H6        -461.7455  -346.1888   634.1852 H6            1 RES     
   32050 H6        -460.5286  -344.8132   635.6703 H6            1 RES     
   32051 H6        -461.8929  -343.8292   635.0659 H6            1 RES     
   32052 H6        -458.9101  -343.5177   634.4446 H6            1 RES     
   32053 H6        -460.0749  -342.3501   633.8364 H6            1 RES     
   32054 H6        -458.2710  -341.6238   635.5888 H6            1 RES     
   32055 H6        -459.0321  -342.6179   636.8293 H6            1 RES     
   32056 H6        -460.0024  -339.7930   635.8099 H6            1 RES     
   32057 H6        -460.8257  -340.8136   637.0057 H6            1 RES     
   32058 H6        -459.3450  -339.9881   638.8930 H6            1 RES     
   32059 H6        -460.4490  -338.8504   638.1624 H6            1 RES     
   32060 H6        -458.9262  -337.1886   637.6994 H6            1 RES     
   32061 H6        -456.5127  -337.4237   637.1614 H6            1 RES     
   32062 H6        -457.7692  -338.3096   636.3154 H6            1 RES     
   32063 H6        -457.1989  -340.4920   637.5441 H6            1 RES     
   32064 H6        -455.7536  -339.6132   638.1303 H6            1 RES     
   32065 H6        -455.1771  -339.2750   635.5737 H6            1 RES     
   32066 H6        -456.5517  -340.2693   635.1571 H6            1 RES     
   32067 H6        -454.3916  -341.5578   635.0541 H6            1 RES     
   32068 H6        -455.5621  -342.2995   636.1756 H6            1 RES     
   32069 H6        -454.4572  -341.4026   638.1067 H6            1 RES     
   32070 H6        -453.2834  -342.3433   637.2033 H6            1 RES     
   32071 H6        -453.3093  -339.3593   636.5056 H6            1 RES     
   32072 H6        -452.9671  -339.7363   638.1945 H6            1 RES     
   32073 H6        -451.0382  -341.0891   637.6386 H6            1 RES     
   32074 H6        -450.9405  -339.4438   636.9143 H6            1 RES     
   32075 H6        -451.6113  -340.3908   634.6802 H6            1 RES     
   32076 H6        -450.0990  -341.1173   635.3455 H6            1 RES     
   32077 H6        -451.6363  -342.0492   635.4179 H6            1 RES     
   32078 H6        -458.7672  -335.6543   639.2293 H6            1 RES     
   32079 H6        -457.1603  -336.1252   639.4727 H6            1 RES     
   32080 H6        -456.9504  -337.2233   642.2824 H6            1 RES     
   32081 H6        -458.3404  -337.0503   643.4095 H6            1 RES     
   32082 H6        -458.7418  -338.4861   640.6718 H6            1 RES     
   32083 H6        -460.5393  -339.6100   641.6433 H6            1 RES     
   32084 H6        -460.1265  -339.0185   643.2814 H6            1 RES     
   32085 H6        -462.1388  -337.9923   642.3414 H6            1 RES     
   32086 H6        -460.8726  -336.7883   642.7771 H6            1 RES     
   32087 H6        -460.4266  -336.3168   640.4689 H6            1 RES     
   32088 H6        -461.2765  -337.7626   639.8736 H6            1 RES     
   32089 H6        -462.4290  -335.6263   639.4074 H6            1 RES     
   32090 H6        -463.3686  -336.7269   640.4886 H6            1 RES     
   32091 H6        -462.5285  -335.4270   642.4726 H6            1 RES     
   32092 H6        -461.7189  -334.2452   641.3789 H6            1 RES     
   32093 H6        -463.9810  -333.6513   640.4419 H6            1 RES     
   32094 H6        -464.7118  -335.0241   641.3745 H6            1 RES     
   32095 H6        -463.3925  -332.5531   642.5571 H6            1 RES     
   32096 H6        -463.9429  -333.9987   643.5261 H6            1 RES     
   32097 H6        -465.6823  -332.1257   641.8431 H6            1 RES     
   32098 H6        -465.5850  -332.2316   643.6506 H6            1 RES     
   32099 H6        -466.2495  -333.6233   642.7103 H6            1 RES     
   32100 H6        -457.7012  -339.9633   643.0666 H6            1 RES     
   32101 H6        -456.7610  -339.3815   641.6599 H6            1 RES     
   32102 H6        -457.8233  -340.8567   640.0691 H6            1 RES     
   32103 H6        -456.9635  -341.6402   641.3750 H6            1 RES     
   32104 H6        -460.0133  -341.7413   641.0147 H6            1 RES     
   32105 H6        -458.7749  -343.0018   640.7654 H6            1 RES     
   32106 H6        -459.5555  -341.6707   643.4014 H6            1 RES     
   32107 H6        -458.1279  -342.7784   643.2390 H6            1 RES     
   32108 H6        -459.5231  -344.6915   642.6734 H6            1 RES     
   32109 H6        -460.9835  -343.6623   642.5054 H6            1 RES     
   32110 H6        -461.0916  -344.8303   644.6638 H6            1 RES     
   32111 H6        -461.0014  -343.0586   644.8400 H6            1 RES     
   32112 H6        -459.6505  -344.0231   646.5760 H6            1 RES     
   32113 H6        -458.5828  -343.1845   645.4419 H6            1 RES     
   32114 H6        -457.9201  -345.3761   644.4077 H6            1 RES     
   32115 H6        -457.5605  -345.2787   646.1610 H6            1 RES     
   32116 H6        -459.9305  -346.8053   644.8907 H6            1 RES     
   32117 H6        -458.4162  -347.5004   645.5521 H6            1 RES     
   32118 H6        -458.9906  -346.6429   647.8376 H6            1 RES     
   32119 H6        -460.5529  -345.9893   647.1939 H6            1 RES     
   32120 H6        -460.2484  -347.7539   647.1760 H6            1 RES     
   32121 C0        -459.3099  -324.5419   652.5798 C0            1 RES     
   32122 C0        -460.8070  -325.5457   652.1643 C0            1 RES     
   32123 C0        -460.8164  -326.6848   652.9594 C0            1 RES     
   32124 S1        -461.9442  -327.9032   652.5178 S1            1 RES     
   32125 C0        -462.6896  -327.2565   651.1831 C0            1 RES     
   32126 C0        -461.9606  -325.8843   651.1101 C0            1 RES     
   32127 C0        -459.5307  -326.9099   653.6212 C0            1 RES     
   32128 C0        -458.7398  -325.9857   652.7096 C0            1 RES     
   32129 C0        -458.1665  -326.6772   651.6873 C0            1 RES     
   32130 C0        -458.2664  -328.0638   651.7719 C0            1 RES     
   32131 S1        -459.0463  -328.6439   653.2537 S1            1 RES     
   32132 H2        -462.1842  -325.2658   650.2492 H2            1 RES     
   32133 H2        -457.8403  -326.2178   650.7685 H2            1 RES     
   32134 N3        -464.5706  -330.6838   650.3651 N3            1 RES     
   32135 C0        -463.7583  -329.7179   650.8207 C0            1 RES     
   32136 C0        -463.8062  -328.2942   650.4427 C0            1 RES     
   32137 C0        -464.8991  -328.1185   649.4634 C0            1 RES     
   32138 N3        -465.2474  -326.9315   648.8730 N3            1 RES     
   32139 S1        -466.5442  -327.3355   647.9083 S1            1 RES     
   32140 N3        -466.7213  -328.9615   648.1419 N3            1 RES     
   32141 C0        -465.7444  -329.2291   649.0188 C0            1 RES     
   32142 C0        -465.5789  -330.5171   649.4656 C0            1 RES     
   32143 H4        -463.0251  -330.0768   651.5083 H4            1 RES     
   32144 C5        -448.1159  -315.3085   665.4503 C5            1 RES     
   32145 C5        -449.1908  -315.9520   664.5288 C5            1 RES     
   32146 C5        -449.0408  -315.5689   663.0200 C5            1 RES     
   32147 C5        -449.8798  -316.3998   661.9318 C5            1 RES     
   32148 C5        -451.4460  -316.1907   661.7593 C5            1 RES     
   32149 C5        -452.4024  -317.1897   660.8296 C5            1 RES     
   32150 C5        -452.5272  -317.2348   659.1815 C5            1 RES     
   32151 C5        -453.7542  -317.9834   658.1746 C5            1 RES     
   32152 C5        -453.9592  -319.5430   657.5145 C5            1 RES     
   32153 C5        -455.1686  -320.4941   656.5782 C5            1 RES     
   32154 C5        -455.6419  -320.7928   654.8865 C5            1 RES     
   32155 C5        -455.1094  -319.3726   654.2757 C5            1 RES     
   32156 C5        -455.6012  -317.9796   654.8813 C5            1 RES     
   32157 C5        -454.6606  -316.7287   654.6005 C5            1 RES     
   32158 C5        -455.2301  -315.3249   655.0379 C5            1 RES     
   32159 C5        -456.6505  -315.0307   654.5078 C5            1 RES     
   32160 C5        -456.7986  -315.1782   652.9740 C5            1 RES     
   32161 C5        -457.0773  -313.8880   652.1942 C5            1 RES     
   32162 C5        -455.9961  -312.8201   652.3195 C5            1 RES     
   32163 C5        -456.7452  -322.0347   653.8182 C5            1 RES     
   32164 C0        -458.3021  -323.2136   653.6843 C0            1 RES     
   32165 C5        -459.3107  -322.4575   654.5867 C5            1 RES     
   32166 C5        -458.7282  -321.8298   655.9439 C5            1 RES     
   32167 C5        -458.6786  -322.8351   657.1073 C5            1 RES     
   32168 C5        -458.0034  -324.2006   656.8429 C5            1 RES     
   32169 C5        -456.5685  -324.1465   656.2746 C5            1 RES     
   32170 C5        -455.8066  -325.4637   656.3431 C5            1 RES     
   32171 C5        -456.5694  -326.6125   655.6825 C5            1 RES     
   32172 C5        -455.8980  -327.9470   655.9898 C5            1 RES     
   32173 C5        -456.8376  -329.0815   655.6045 C5            1 RES     
   32174 C5        -456.3401  -330.4335   656.0619 C5            1 RES     
   32175 C5        -459.4678  -320.5000   656.3174 C5            1 RES     
   32176 C5        -458.8510  -319.4419   657.3108 C5            1 RES     
   32177 C5        -458.8113  -319.6503   658.8492 C5            1 RES     
   32178 C5        -460.1917  -319.9884   659.4269 C5            1 RES     
   32179 C5        -460.2617  -319.8920   660.9678 C5            1 RES     
   32180 C5        -461.5225  -320.5858   661.5291 C5            1 RES     
   32181 C5        -462.8749  -320.0748   660.9896 C5            1 RES     
   32182 C5        -463.2490  -318.6373   661.3961 C5            1 RES     
   32183 C5        -463.4008  -318.4100   662.9132 C5            1 RES     
   32184 C5        -464.4791  -319.2874   663.5553 C5            1 RES     
   32185 H6        -447.0864  -315.6190   665.1591 H6            1 RES     
   32186 H6        -448.1586  -314.1985   665.4473 H6            1 RES     
   32187 H6        -448.2558  -315.6421   666.5066 H6            1 RES     
   32188 H6        -449.0657  -317.0491   664.6417 H6            1 RES     
   32189 H6        -450.1921  -315.6600   664.9050 H6            1 RES     
   32190 H6        -449.1719  -314.4687   662.9092 H6            1 RES     
   32191 H6        -447.9659  -315.7742   662.7997 H6            1 RES     
   32192 H6        -449.6793  -317.4657   662.1547 H6            1 RES     
   32193 H6        -449.4236  -316.1502   660.9529 H6            1 RES     
   32194 H6        -451.6156  -315.1179   661.5047 H6            1 RES     
   32195 H6        -451.8181  -316.2957   662.8065 H6            1 RES     
   32196 H6        -453.4153  -316.8759   661.1662 H6            1 RES     
   32197 H6        -452.2257  -318.2091   661.2136 H6            1 RES     
   32198 H6        -452.6659  -316.1399   658.9989 H6            1 RES     
   32199 H6        -451.5163  -317.4513   658.7790 H6            1 RES     
   32200 H6        -453.6658  -317.3179   657.2909 H6            1 RES     
   32201 H6        -454.6885  -317.6637   658.6841 H6            1 RES     
   32202 H6        -452.9808  -319.7388   657.0293 H6            1 RES     
   32203 H6        -453.9441  -320.0940   658.4768 H6            1 RES     
   32204 H6        -456.0884  -320.2934   657.1359 H6            1 RES     
   32205 H6        -454.8518  -321.4997   656.8849 H6            1 RES     
   32206 H6        -454.7176  -321.3394   654.5934 H6            1 RES     
   32207 H6        -455.1140  -319.3444   653.1676 H6            1 RES     
   32208 H6        -454.0192  -319.3343   654.5390 H6            1 RES     
   32209 H6        -455.6818  -318.0149   655.9858 H6            1 RES     
   32210 H6        -456.6050  -317.7966   654.4677 H6            1 RES     
   32211 H6        -454.4004  -316.6814   653.5299 H6            1 RES     
   32212 H6        -453.6760  -316.8406   655.1116 H6            1 RES     
   32213 H6        -454.5413  -314.5124   654.7020 H6            1 RES     
   32214 H6        -455.2709  -315.2539   656.1496 H6            1 RES     
   32215 H6        -457.3114  -315.7713   654.9993 H6            1 RES     
   32216 H6        -457.0356  -314.0444   654.8558 H6            1 RES     
   32217 H6        -455.9367  -315.6922   652.5173 H6            1 RES     
   32218 H6        -457.6729  -315.8376   652.7926 H6            1 RES     
   32219 H6        -458.0477  -313.4613   652.5238 H6            1 RES     
   32220 H6        -457.1682  -314.1691   651.1214 H6            1 RES     
   32221 H6        -455.0100  -313.2125   651.9959 H6            1 RES     
   32222 H6        -456.2699  -311.9631   651.6658 H6            1 RES     
   32223 H6        -455.9296  -312.4516   653.3636 H6            1 RES     
   32224 H6        -455.9564  -322.7593   653.5122 H6            1 RES     
   32225 H6        -456.8224  -321.4524   652.8757 H6            1 RES     
   32226 H6        -459.6536  -321.6425   653.9209 H6            1 RES     
   32227 H6        -460.1737  -323.1139   654.8134 H6            1 RES     
   32228 H6        -457.7195  -321.4803   655.8265 H6            1 RES     
   32229 H6        -458.1451  -322.3542   657.9462 H6            1 RES     
   32230 H6        -459.7149  -323.0446   657.4336 H6            1 RES     
   32231 H6        -457.9790  -324.7247   657.8209 H6            1 RES     
   32232 H6        -458.6511  -324.7791   656.1512 H6            1 RES     
   32233 H6        -456.6094  -323.9283   655.2258 H6            1 RES     
   32234 H6        -455.9741  -323.3781   656.7945 H6            1 RES     
   32235 H6        -454.8151  -325.3451   655.8473 H6            1 RES     
   32236 H6        -455.6433  -325.6873   657.4158 H6            1 RES     
   32237 H6        -457.5781  -326.6597   656.1342 H6            1 RES     
   32238 H6        -456.6802  -326.4531   654.5853 H6            1 RES     
   32239 H6        -454.9229  -328.0319   655.4611 H6            1 RES     
   32240 H6        -455.7288  -328.0051   657.0853 H6            1 RES     
   32241 H6        -456.9196  -329.0967   654.5094 H6            1 RES     
   32242 H6        -457.8341  -328.9139   656.0785 H6            1 RES     
   32243 H6        -455.3831  -330.6709   655.5569 H6            1 RES     
   32244 H6        -457.1012  -331.1983   655.7966 H6            1 RES     
   32245 H6        -456.2055  -330.4295   657.1637 H6            1 RES     
   32246 H6        -460.5199  -320.7114   656.5797 H6            1 RES     
   32247 H6        -459.4691  -319.9220   655.3656 H6            1 RES     
   32248 H6        -457.8442  -319.1345   656.9703 H6            1 RES     
   32249 H6        -459.4718  -318.5293   657.1778 H6            1 RES     
   32250 H6        -458.0705  -320.4183   659.1551 H6            1 RES     
   32251 H6        -458.4690  -318.6844   659.2938 H6            1 RES     
   32252 H6        -460.4249  -321.0226   659.1016 H6            1 RES     
   32253 H6        -460.9480  -319.2876   659.0141 H6            1 RES     
   32254 H6        -460.2162  -318.8259   661.2895 H6            1 RES     
   32255 H6        -459.3883  -320.4129   661.4172 H6            1 RES     
   32256 H6        -461.5160  -320.5381   662.6386 H6            1 RES     
   32257 H6        -461.4459  -321.6600   661.2551 H6            1 RES     
   32258 H6        -463.6719  -320.7620   661.3399 H6            1 RES     
   32259 H6        -462.8796  -320.1474   659.8825 H6            1 RES     
   32260 H6        -462.4884  -317.9318   661.0004 H6            1 RES     
   32261 H6        -464.2194  -318.3885   660.9116 H6            1 RES     
   32262 H6        -462.4332  -318.5796   663.4284 H6            1 RES     
   32263 H6        -463.6855  -317.3472   663.0725 H6            1 RES     
   32264 H6        -465.4620  -319.1171   663.0662 H6            1 RES     
   32265 H6        -464.2151  -320.3626   663.4863 H6            1 RES     
   32266 H6        -464.5705  -319.0331   664.6322 H6            1 RES     
   32267 C0        -466.4211  -335.0316   647.0396 C0            1 RES     
   32268 C0        -465.6557  -335.2688   648.7067 C0            1 RES     
   32269 C0        -466.5563  -334.8464   649.6764 C0            1 RES     
   32270 S1        -465.9300  -334.6860   651.2682 S1            1 RES     
   32271 C0        -464.3369  -335.1161   651.0882 C0            1 RES     
   32272 C0        -464.3237  -335.4580   649.5707 C0            1 RES     
   32273 C0        -467.6574  -334.0673   649.1088 C0            1 RES     
   32274 C0        -466.9593  -333.7772   647.7901 C0            1 RES     
   32275 C0        -466.3231  -332.5748   647.8255 C0            1 RES     
   32276 C0        -466.5728  -331.7980   648.9543 C0            1 RES     
   32277 S1        -467.7496  -332.5063   650.0740 S1            1 RES     
   32278 H2        -463.3574  -335.6869   649.1375 H2            1 RES     
   32279 H2        -465.5226  -332.3061   647.1557 H2            1 RES     
   32280 N3        -463.4259  -333.9376   654.7942 N3            1 RES     
   32281 C0        -463.9906  -334.1591   653.5973 C0            1 RES     
   32282 C0        -463.4121  -334.9531   652.4987 C0            1 RES     
   32283 C0        -462.0938  -335.4531   652.9420 C0            1 RES     
   32284 N3        -461.2478  -336.2253   652.1890 N3            1 RES     
   32285 S1        -459.9572  -336.5037   653.2050 S1            1 RES     
   32286 N3        -460.3528  -335.6829   654.5833 N3            1 RES     
   32287 C0        -461.5491  -335.1667   654.2713 C0            1 RES     
   32288 C0        -462.2127  -334.4033   655.2002 C0            1 RES     
   32289 H4        -464.9393  -333.6826   653.4870 H4            1 RES     
   32290 C5        -480.8950  -337.9189   634.4546 C5            1 RES     
   32291 C5        -479.7589  -337.9102   635.5165 C5            1 RES     
   32292 C5        -478.3627  -337.4981   634.9449 C5            1 RES     
   32293 C5        -477.1847  -337.1488   635.9787 C5            1 RES     
   32294 C5        -476.4377  -338.2883   636.7970 C5            1 RES     
   32295 C5        -475.3892  -337.9711   638.0529 C5            1 RES     
   32296 C5        -473.8310  -337.4254   637.9651 C5            1 RES     
   32297 C5        -472.5777  -337.4230   639.1936 C5            1 RES     
   32298 C5        -472.1288  -336.3365   640.4298 C5            1 RES     
   32299 C5        -470.9772  -336.2199   641.8097 C5            1 RES     
   32300 C5        -469.2928  -335.7363   642.1316 C5            1 RES     
   32301 C5        -468.7062  -336.0462   640.6371 C5            1 RES     
   32302 C5        -468.8820  -337.4838   639.9652 C5            1 RES     
   32303 C5        -468.7703  -337.5285   638.3797 C5            1 RES     
   32304 C5        -468.7616  -338.9646   637.7286 C5            1 RES     
   32305 C5        -467.7237  -339.9275   638.3455 C5            1 RES     
   32306 C5        -466.2779  -339.3748   638.3644 C5            1 RES     
   32307 C5        -465.2665  -340.0953   637.4653 C5            1 RES     
   32308 C5        -465.6068  -340.0767   635.9791 C5            1 RES     
   32309 C5        -468.1005  -335.3152   643.6489 C5            1 RES     
   32310 C0        -467.5999  -335.5857   645.5218 C0            1 RES     
   32311 C5        -467.9610  -337.0827   645.7002 C5            1 RES     
   32312 C5        -469.3266  -337.5773   645.0174 C5            1 RES     
   32313 C5        -470.5679  -337.3337   645.8928 C5            1 RES     
   32314 C5        -470.7679  -335.9128   646.4686 C5            1 RES     
   32315 C5        -470.7455  -334.7584   645.4431 C5            1 RES     
   32316 C5        -471.2763  -333.4306   645.9676 C5            1 RES     
   32317 C5        -470.5673  -332.9847   647.2469 C5            1 RES     
   32318 C5        -471.2889  -331.7950   647.8716 C5            1 RES     
   32319 C5        -470.7690  -331.5796   649.2864 C5            1 RES     
   32320 C5        -471.5700  -330.5527   650.0535 C5            1 RES     
   32321 C5        -469.2096  -339.0595   644.5232 C5            1 RES     
   32322 C5        -470.1872  -339.6696   643.4467 C5            1 RES     
   32323 C5        -471.6520  -340.0732   643.7682 C5            1 RES     
   32324 C5        -471.7450  -341.0144   644.9761 C5            1 RES     
   32325 C5        -473.1274  -341.6865   645.1360 C5            1 RES     
   32326 C5        -473.3010  -342.3152   646.5362 C5            1 RES     
   32327 C5        -472.2462  -343.3652   646.9438 C5            1 RES     
   32328 C5        -472.2734  -344.6777   646.1385 C5            1 RES     
   32329 C5        -473.5854  -345.4797   646.2482 C5            1 RES     
   32330 C5        -473.9257  -345.8972   647.6816 C5            1 RES     
   32331 H6        -481.0386  -336.9126   633.9988 H6            1 RES     
   32332 H6        -480.7111  -338.6482   633.6371 H6            1 RES     
   32333 H6        -481.8698  -338.1900   634.9268 H6            1 RES     
   32334 H6        -480.0714  -337.1729   636.2851 H6            1 RES     
   32335 H6        -479.7065  -338.9167   635.9789 H6            1 RES     
   32336 H6        -478.0495  -338.2423   634.1781 H6            1 RES     
   32337 H6        -478.5722  -336.5532   634.3888 H6            1 RES     
   32338 H6        -477.6209  -336.4199   636.6889 H6            1 RES     
   32339 H6        -476.4063  -336.6368   635.3781 H6            1 RES     
   32340 H6        -475.9821  -338.9889   636.0580 H6            1 RES     
   32341 H6        -477.2874  -338.8593   637.2423 H6            1 RES     
   32342 H6        -475.2929  -338.9847   638.5012 H6            1 RES     
   32343 H6        -475.9587  -337.3467   638.7627 H6            1 RES     
   32344 H6        -473.4495  -338.1451   637.1984 H6            1 RES     
   32345 H6        -473.8511  -336.4504   637.4361 H6            1 RES     
   32346 H6        -471.6943  -337.4599   638.5228 H6            1 RES     
   32347 H6        -472.6679  -338.4498   639.6083 H6            1 RES     
   32348 H6        -472.0581  -335.3666   639.8955 H6            1 RES     
   32349 H6        -473.1045  -336.3299   640.9570 H6            1 RES     
   32350 H6        -471.1349  -337.1794   642.3117 H6            1 RES     
   32351 H6        -471.5231  -335.4803   642.4101 H6            1 RES     
   32352 H6        -469.4325  -334.6520   641.9222 H6            1 RES     
   32353 H6        -467.6779  -335.6620   640.4830 H6            1 RES     
   32354 H6        -469.3309  -335.4215   639.9452 H6            1 RES     
   32355 H6        -469.8777  -337.9204   640.1786 H6            1 RES     
   32356 H6        -468.1162  -338.1343   640.4154 H6            1 RES     
   32357 H6        -467.8679  -336.9891   638.0468 H6            1 RES     
   32358 H6        -469.6085  -336.9717   637.8996 H6            1 RES     
   32359 H6        -468.5750  -338.8842   636.6302 H6            1 RES     
   32360 H6        -469.7623  -339.4437   637.8366 H6            1 RES     
   32361 H6        -468.0530  -340.0910   639.3904 H6            1 RES     
   32362 H6        -467.7606  -340.9410   637.8834 H6            1 RES     
   32363 H6        -466.2397  -338.2939   638.1500 H6            1 RES     
   32364 H6        -465.8983  -339.4895   639.4012 H6            1 RES     
   32365 H6        -465.1620  -341.1486   637.7998 H6            1 RES     
   32366 H6        -464.2863  -339.5876   637.6058 H6            1 RES     
   32367 H6        -465.7174  -339.0364   635.6093 H6            1 RES     
   32368 H6        -464.7782  -340.5663   635.4217 H6            1 RES     
   32369 H6        -466.5387  -340.6458   635.7842 H6            1 RES     
   32370 H6        -468.2068  -334.2064   643.6597 H6            1 RES     
   32371 H6        -467.1164  -335.3913   643.1399 H6            1 RES     
   32372 H6        -467.1030  -337.5886   645.2174 H6            1 RES     
   32373 H6        -467.9617  -337.3408   646.7774 H6            1 RES     
   32374 H6        -469.5244  -337.0657   644.0942 H6            1 RES     
   32375 H6        -471.4597  -337.5796   645.2896 H6            1 RES     
   32376 H6        -470.5319  -338.0289   646.7528 H6            1 RES     
   32377 H6        -471.7573  -335.9226   646.9714 H6            1 RES     
   32378 H6        -469.9860  -335.7372   647.2370 H6            1 RES     
   32379 H6        -469.7306  -334.5408   645.1748 H6            1 RES     
   32380 H6        -471.3215  -335.0276   644.5434 H6            1 RES     
   32381 H6        -471.1535  -332.6465   645.1847 H6            1 RES     
   32382 H6        -472.3575  -333.5698   646.1649 H6            1 RES     
   32383 H6        -470.6327  -333.8095   647.9812 H6            1 RES     
   32384 H6        -469.4918  -332.7599   647.0620 H6            1 RES     
   32385 H6        -471.1604  -330.8815   647.2497 H6            1 RES     
   32386 H6        -472.3686  -332.0432   647.9419 H6            1 RES     
   32387 H6        -469.7318  -331.2257   649.2162 H6            1 RES     
   32388 H6        -470.8273  -332.5400   649.8522 H6            1 RES     
   32389 H6        -471.4796  -329.5639   649.5621 H6            1 RES     
   32390 H6        -471.1689  -330.4928   651.0880 H6            1 RES     
   32391 H6        -472.6339  -330.8660   650.0995 H6            1 RES     
   32392 H6        -469.1092  -339.7410   645.3868 H6            1 RES     
   32393 H6        -468.2445  -339.0776   643.9679 H6            1 RES     
   32394 H6        -470.1850  -339.0511   642.5294 H6            1 RES     
   32395 H6        -469.7075  -340.6219   643.1321 H6            1 RES     
   32396 H6        -472.3122  -339.1936   643.9175 H6            1 RES     
   32397 H6        -472.0395  -340.6120   642.8696 H6            1 RES     
   32398 H6        -471.5165  -340.4015   645.8716 H6            1 RES     
   32399 H6        -470.9905  -341.8232   644.8747 H6            1 RES     
   32400 H6        -473.2812  -342.4465   644.3354 H6            1 RES     
   32401 H6        -473.9303  -340.9247   645.0303 H6            1 RES     
   32402 H6        -474.3198  -342.7466   646.6315 H6            1 RES     
   32403 H6        -473.2359  -341.4840   647.2709 H6            1 RES     
   32404 H6        -472.3888  -343.6039   648.0174 H6            1 RES     
   32405 H6        -471.2338  -342.9178   646.8665 H6            1 RES     
   32406 H6        -472.0732  -344.4588   645.0686 H6            1 RES     
   32407 H6        -471.4444  -345.3210   646.5087 H6            1 RES     
   32408 H6        -474.4299  -344.8995   645.8233 H6            1 RES     
   32409 H6        -473.4723  -346.4040   645.6407 H6            1 RES     
   32410 H6        -473.0997  -346.4978   648.1188 H6            1 RES     
   32411 H6        -474.1166  -345.0123   648.3226 H6            1 RES     
   32412 H6        -474.8489  -346.5141   647.6782 H6            1 RES     
   32413 C0        -460.3496  -331.2399   658.8741 C0            1 RES     
   32414 C0        -462.1953  -331.1764   658.7706 C0            1 RES     
   32415 C0        -462.7068  -332.4133   659.1420 C0            1 RES     
   32416 S1        -464.3742  -332.6685   658.8156 S1            1 RES     
   32417 C0        -464.8385  -331.2421   658.1050 C0            1 RES     
   32418 C0        -463.4942  -330.4622   658.1709 C0            1 RES     
   32419 C0        -461.6754  -333.4507   659.1820 C0            1 RES     
   32420 C0        -460.6634  -332.6746   658.3549 C0            1 RES     
   32421 C0        -460.7424  -333.0123   657.0390 C0            1 RES     
   32422 C0        -461.5790  -334.0864   656.7456 C0            1 RES     
   32423 S1        -462.2999  -334.8528   658.1716 S1            1 RES     
   32424 H2        -463.4720  -329.4988   657.6759 H2            1 RES     
   32425 H2        -460.3687  -332.3901   656.2424 H2            1 RES     
   32426 N3        -468.4057  -332.7188   657.0813 N3            1 RES     
   32427 C0        -467.1337  -332.5273   657.4633 C0            1 RES     
   32428 C0        -466.4444  -331.2286   657.5640 C0            1 RES     
   32429 C0        -467.3966  -330.1737   657.1580 C0            1 RES     
   32430 N3        -467.1179  -328.8323   657.1139 N3            1 RES     
   32431 S1        -468.5556  -328.1457   656.6272 S1            1 RES     
   32432 N3        -469.5641  -329.4386   656.4237 N3            1 RES     
   32433 C0        -468.7739  -330.4683   656.7556 C0            1 RES     
   32434 C0        -469.2811  -331.7438   656.7117 C0            1 RES     
   32435 H4        -466.6236  -333.4364   657.6922 H4            1 RES     
   32436 C5        -444.0250  -334.7081   668.7581 C5            1 RES     
   32437 C5        -445.4074  -334.3252   668.1572 C5            1 RES     
   32438 C5        -445.3145  -333.4222   666.8836 C5            1 RES     
   32439 C5        -446.6349  -333.2157   665.9934 C5            1 RES     
   32440 C5        -447.8257  -332.2843   666.4840 C5            1 RES     
   32441 C5        -449.3097  -332.2273   665.7279 C5            1 RES     
   32442 C5        -449.7009  -331.4748   664.3086 C5            1 RES     
   32443 C5        -451.2795  -331.0688   663.6580 C5            1 RES     
   32444 C5        -452.4173  -331.9004   662.6967 C5            1 RES     
   32445 C5        -454.0824  -331.6913   662.0427 C5            1 RES     
   32446 C5        -454.9057  -330.9632   660.6404 C5            1 RES     
   32447 C5        -453.7816  -329.8201   660.3192 C5            1 RES     
   32448 C5        -453.3140  -328.7864   661.4425 C5            1 RES     
   32449 C5        -451.8975  -328.1021   661.2113 C5            1 RES     
   32450 C5        -451.5144  -326.9509   662.2184 C5            1 RES     
   32451 C5        -452.5964  -325.8586   662.3646 C5            1 RES     
   32452 C5        -453.0450  -325.2265   661.0248 C5            1 RES     
   32453 C5        -452.6826  -323.7513   660.8179 C5            1 RES     
   32454 C5        -451.1876  -323.4522   660.8388 C5            1 RES     
   32455 C5        -456.6665  -330.9690   659.7456 C5            1 RES     
   32456 C0        -458.6130  -331.1406   659.8614 C0            1 RES     
   32457 C5        -458.8730  -330.5070   661.2521 C5            1 RES     
   32458 C5        -457.8316  -330.8783   662.4154 C5            1 RES     
   32459 C5        -458.1618  -332.2007   663.1286 C5            1 RES     
   32460 C5        -458.4096  -333.4456   662.2458 C5            1 RES     
   32461 C5        -457.2988  -333.7847   661.2280 C5            1 RES     
   32462 C5        -457.3957  -335.1781   660.6206 C5            1 RES     
   32463 C5        -458.7614  -335.4429   659.9859 C5            1 RES     
   32464 C5        -458.9035  -336.9161   659.6175 C5            1 RES     
   32465 C5        -460.3616  -337.2141   659.2954 C5            1 RES     
   32466 C5        -460.6312  -338.6908   659.1188 C5            1 RES     
   32467 C5        -457.6387  -329.6812   663.4077 C5            1 RES     
   32468 C5        -456.3892  -329.5705   664.3633 C5            1 RES     
   32469 C5        -456.2256  -330.4343   665.6435 C5            1 RES     
   32470 C5        -457.4477  -330.3448   666.5665 C5            1 RES     
   32471 C5        -457.2043  -330.9236   667.9786 C5            1 RES     
   32472 C5        -458.5286  -331.1570   668.7389 C5            1 RES     
   32473 C5        -459.4364  -329.9217   668.9149 C5            1 RES     
   32474 C5        -458.8799  -328.8168   669.8321 C5            1 RES     
   32475 C5        -458.6347  -329.2469   671.2919 C5            1 RES     
   32476 C5        -459.8987  -329.7398   672.0018 C5            1 RES     
   32477 H6        -443.4031  -335.2753   668.0285 H6            1 RES     
   32478 H6        -443.4451  -333.8227   669.0956 H6            1 RES     
   32479 H6        -444.1548  -335.3757   669.6436 H6            1 RES     
   32480 H6        -445.8953  -335.2856   667.8896 H6            1 RES     
   32481 H6        -446.0030  -333.8226   668.9458 H6            1 RES     
   32482 H6        -444.8295  -332.4577   667.1561 H6            1 RES     
   32483 H6        -444.5858  -333.9591   666.2303 H6            1 RES     
   32484 H6        -447.0262  -334.2340   665.8039 H6            1 RES     
   32485 H6        -446.2809  -332.7875   665.0341 H6            1 RES     
   32486 H6        -447.4104  -331.2602   666.6360 H6            1 RES     
   32487 H6        -448.0199  -332.6672   667.5145 H6            1 RES     
   32488 H6        -449.9091  -331.6850   666.4924 H6            1 RES     
   32489 H6        -449.6689  -333.2705   665.7029 H6            1 RES     
   32490 H6        -449.2366  -330.4791   664.5190 H6            1 RES     
   32491 H6        -449.0599  -331.9111   663.5152 H6            1 RES     
   32492 H6        -450.9801  -330.1964   663.0409 H6            1 RES     
   32493 H6        -451.7836  -330.6334   664.5474 H6            1 RES     
   32494 H6        -451.8045  -332.2694   661.8486 H6            1 RES     
   32495 H6        -452.5560  -332.7641   663.3783 H6            1 RES     
   32496 H6        -454.6329  -331.3765   662.9345 H6            1 RES     
   32497 H6        -454.3318  -332.7512   661.9017 H6            1 RES     
   32498 H6        -454.5008  -331.6671   659.8791 H6            1 RES     
   32499 H6        -453.9474  -329.3036   659.3525 H6            1 RES     
   32500 H6        -452.8278  -330.3887   660.1577 H6            1 RES     
   32501 H6        -453.2223  -329.2692   662.4356 H6            1 RES     
   32502 H6        -454.0987  -328.0166   661.5042 H6            1 RES     
   32503 H6        -451.8304  -327.7044   660.1849 H6            1 RES     
   32504 H6        -451.0734  -328.8513   661.2634 H6            1 RES     
   32505 H6        -450.5553  -326.4726   661.9039 H6            1 RES     
   32506 H6        -451.3301  -327.3717   663.2341 H6            1 RES     
   32507 H6        -453.4679  -326.3624   662.8268 H6            1 RES     
   32508 H6        -452.3084  -325.0746   663.1025 H6            1 RES     
   32509 H6        -452.6993  -325.8049   660.1520 H6            1 RES     
   32510 H6        -454.1538  -325.2737   660.9969 H6            1 RES     
   32511 H6        -453.1858  -323.1366   661.5934 H6            1 RES     
   32512 H6        -453.0847  -323.4534   659.8240 H6            1 RES     
   32513 H6        -450.6516  -324.0498   660.0728 H6            1 RES     
   32514 H6        -451.0409  -322.3728   660.6148 H6            1 RES     
   32515 H6        -450.7616  -323.6585   661.8420 H6            1 RES     
   32516 H6        -456.4730  -331.7461   658.9713 H6            1 RES     
   32517 H6        -456.5580  -330.0622   659.1137 H6            1 RES     
   32518 H6        -458.8081  -329.4244   661.0308 H6            1 RES     
   32519 H6        -459.9053  -330.7382   661.5806 H6            1 RES     
   32520 H6        -456.8330  -330.9992   662.0394 H6            1 RES     
   32521 H6        -457.3250  -332.4344   663.8103 H6            1 RES     
   32522 H6        -459.0720  -332.0513   663.7397 H6            1 RES     
   32523 H6        -458.5234  -334.2995   662.9456 H6            1 RES     
   32524 H6        -459.3702  -333.3031   661.7077 H6            1 RES     
   32525 H6        -457.3795  -333.1303   660.3825 H6            1 RES     
   32526 H6        -456.3042  -333.6794   661.6899 H6            1 RES     
   32527 H6        -456.5998  -335.3033   659.8500 H6            1 RES     
   32528 H6        -457.2143  -335.9013   661.4400 H6            1 RES     
   32529 H6        -459.5390  -335.2350   660.7449 H6            1 RES     
   32530 H6        -458.9395  -334.7822   659.1067 H6            1 RES     
   32531 H6        -458.2389  -337.1780   658.7647 H6            1 RES     
   32532 H6        -458.6218  -337.5230   660.5033 H6            1 RES     
   32533 H6        -460.6125  -336.7030   658.3563 H6            1 RES     
   32534 H6        -461.0065  -336.8541   660.1322 H6            1 RES     
   32535 H6        -460.0622  -339.0740   658.2490 H6            1 RES     
   32536 H6        -461.7194  -338.8328   658.9442 H6            1 RES     
   32537 H6        -460.3424  -339.2369   660.0411 H6            1 RES     
   32538 H6        -458.5731  -329.4979   663.9677 H6            1 RES     
   32539 H6        -457.4720  -328.8071   662.7382 H6            1 RES     
   32540 H6        -455.4511  -329.6243   663.7791 H6            1 RES     
   32541 H6        -456.4116  -328.5260   664.7433 H6            1 RES     
   32542 H6        -455.9971  -331.4958   665.4136 H6            1 RES     
   32543 H6        -455.3393  -330.0302   666.1904 H6            1 RES     
   32544 H6        -458.2636  -330.9033   666.0642 H6            1 RES     
   32545 H6        -457.7432  -329.2811   666.6882 H6            1 RES     
   32546 H6        -456.5246  -330.2559   668.5568 H6            1 RES     
   32547 H6        -456.7076  -331.9151   667.8982 H6            1 RES     
   32548 H6        -458.3189  -331.6158   669.7282 H6            1 RES     
   32549 H6        -459.1054  -331.9063   668.1551 H6            1 RES     
   32550 H6        -460.4120  -330.2609   669.3188 H6            1 RES     
   32551 H6        -459.6580  -329.4841   667.9197 H6            1 RES     
   32552 H6        -457.9311  -328.4270   669.4070 H6            1 RES     
   32553 H6        -459.6123  -327.9790   669.8381 H6            1 RES     
   32554 H6        -457.8558  -330.0354   671.3370 H6            1 RES     
   32555 H6        -458.2525  -328.3636   671.8485 H6            1 RES     
   32556 H6        -460.6854  -328.9556   671.9856 H6            1 RES     
   32557 H6        -460.2901  -330.6637   671.5289 H6            1 RES     
   32558 H6        -459.6597  -329.9799   673.0592 H6            1 RES     
   32559 C0        -472.8603  -333.8120   653.5673 C0            1 RES     
   32560 C0        -472.0993  -335.0759   654.6830 C0            1 RES     
   32561 C0        -472.4451  -334.7799   655.9955 C0            1 RES     
   32562 S1        -471.5895  -335.6390   657.2127 S1            1 RES     
   32563 C0        -470.5557  -336.5978   656.3368 C0            1 RES     
   32564 C0        -470.9777  -336.1957   654.8946 C0            1 RES     
   32565 C0        -473.0037  -333.4341   656.1318 C0            1 RES     
   32566 C0        -472.4842  -332.9303   654.7951 C0            1 RES     
   32567 C0        -471.2924  -332.2898   654.9413 C0            1 RES     
   32568 C0        -470.8848  -332.0759   656.2558 C0            1 RES     
   32569 S1        -472.0590  -332.6058   657.4728 S1            1 RES     
   32570 H2        -470.3849  -336.6082   654.0871 H2            1 RES     
   32571 H2        -470.5971  -332.1363   654.1323 H2            1 RES     
   32572 N3        -468.5640  -337.7288   659.6090 N3            1 RES     
   32573 C0        -469.3399  -337.1201   658.6992 C0            1 RES     
   32574 C0        -469.4837  -337.5062   657.2841 C0            1 RES     
   32575 C0        -468.6131  -338.6750   657.0392 C0            1 RES     
   32576 N3        -468.4709  -339.3158   655.8358 N3            1 RES     
   32577 S1        -467.4083  -340.5544   656.1706 S1            1 RES     
   32578 N3        -467.0554  -340.3526   657.7721 N3            1 RES     
   32579 C0        -467.7963  -339.2833   658.0921 C0            1 RES     
   32580 C0        -467.7661  -338.8080   659.3803 C0            1 RES     
   32581 H4        -469.8683  -336.2807   659.0934 H4            1 RES     
   32582 C5        -488.3002  -324.0763   647.0070 C5            1 RES     
   32583 C5        -487.1972  -325.0433   647.5235 C5            1 RES     
   32584 C5        -485.9201  -325.0847   646.6217 C5            1 RES     
   32585 C5        -484.5986  -325.7922   647.1974 C5            1 RES     
   32586 C5        -484.4889  -327.3739   647.3083 C5            1 RES     
   32587 C5        -483.2553  -328.1479   648.1185 C5            1 RES     
   32588 C5        -481.6943  -328.3718   647.6219 C5            1 RES     
   32589 C5        -480.4723  -329.4695   648.2399 C5            1 RES     
   32590 C5        -479.3053  -329.3703   649.4801 C5            1 RES     
   32591 C5        -478.0788  -330.4014   650.3027 C5            1 RES     
   32592 C5        -476.3834  -330.9115   650.1022 C5            1 RES     
   32593 C5        -476.3157  -330.7479   648.4767 C5            1 RES     
   32594 C5        -477.3639  -331.4920   647.5298 C5            1 RES     
   32595 C5        -477.5517  -330.8716   646.0779 C5            1 RES     
   32596 C5        -478.4451  -331.7052   645.0813 C5            1 RES     
   32597 C5        -478.0322  -333.1882   644.9582 C5            1 RES     
   32598 C5        -476.5420  -333.4044   644.5995 C5            1 RES     
   32599 C5        -476.2595  -334.0130   643.2210 C5            1 RES     
   32600 C5        -476.7654  -333.1877   642.0429 C5            1 RES     
   32601 C5        -474.9329  -331.7843   651.1197 C5            1 RES     
   32602 C0        -474.3736  -333.0487   652.5054 C0            1 RES     
   32603 C5        -475.4697  -334.1351   652.3594 C5            1 RES     
   32604 C5        -476.9686  -333.6141   652.1202 C5            1 RES     
   32605 C5        -477.7070  -333.2651   653.4239 C5            1 RES     
   32606 C5        -476.9905  -332.3252   654.4208 C5            1 RES     
   32607 C5        -476.4967  -330.9796   653.8460 C5            1 RES     
   32608 C5        -476.1101  -329.9435   654.8932 C5            1 RES     
   32609 C5        -475.0788  -330.4777   655.8877 C5            1 RES     
   32610 C5        -474.9085  -329.5094   657.0538 C5            1 RES     
   32611 C5        -474.1376  -330.2000   658.1706 C5            1 RES     
   32612 C5        -474.0995  -329.3868   659.4442 C5            1 RES     
   32613 C5        -477.7739  -334.6013   651.2082 C5            1 RES     
   32614 C5        -479.0832  -334.1665   650.4442 C5            1 RES     
   32615 C5        -480.4517  -333.9770   651.1536 C5            1 RES     
   32616 C5        -480.8556  -335.2063   651.9777 C5            1 RES     
   32617 C5        -482.3315  -335.1906   652.4356 C5            1 RES     
   32618 C5        -482.5972  -336.2263   653.5504 C5            1 RES     
   32619 C5        -482.2523  -337.6916   653.2111 C5            1 RES     
   32620 C5        -483.1313  -338.3446   652.1281 C5            1 RES     
   32621 C5        -484.6297  -338.4389   652.4776 C5            1 RES     
   32622 C5        -484.9092  -339.2511   653.7453 C5            1 RES     
   32623 H6        -487.9328  -323.0260   646.9526 H6            1 RES     
   32624 H6        -488.6854  -324.3626   646.0051 H6            1 RES     
   32625 H6        -489.1709  -324.0669   647.7059 H6            1 RES     
   32626 H6        -486.9205  -324.6722   648.5324 H6            1 RES     
   32627 H6        -487.6381  -326.0563   647.6175 H6            1 RES     
   32628 H6        -486.1998  -325.4622   645.6121 H6            1 RES     
   32629 H6        -485.6566  -324.0085   646.4855 H6            1 RES     
   32630 H6        -484.4369  -325.3471   648.1983 H6            1 RES     
   32631 H6        -483.7754  -325.4700   646.5287 H6            1 RES     
   32632 H6        -484.6237  -327.7927   646.2831 H6            1 RES     
   32633 H6        -485.4279  -327.6415   647.8495 H6            1 RES     
   32634 H6        -483.6667  -329.1797   648.1817 H6            1 RES     
   32635 H6        -483.2605  -327.7252   649.1379 H6            1 RES     
   32636 H6        -481.9046  -328.7604   646.5943 H6            1 RES     
   32637 H6        -481.2552  -327.3679   647.4480 H6            1 RES     
   32638 H6        -479.8789  -329.5903   647.3099 H6            1 RES     
   32639 H6        -481.0487  -330.4142   648.3389 H6            1 RES     
   32640 H6        -478.7956  -328.4083   649.2664 H6            1 RES     
   32641 H6        -480.0139  -329.1687   650.3090 H6            1 RES     
   32642 H6        -478.6589  -331.3027   650.5234 H6            1 RES     
   32643 H6        -478.0184  -329.8508   651.2507 H6            1 RES     
   32644 H6        -475.9301  -329.9117   650.2863 H6            1 RES     
   32645 H6        -475.2877  -330.8341   648.0713 H6            1 RES     
   32646 H6        -476.5907  -329.6776   648.2814 H6            1 RES     
   32647 H6        -478.3849  -331.4874   647.9601 H6            1 RES     
   32648 H6        -477.0269  -332.5373   647.4521 H6            1 RES     
   32649 H6        -476.5691  -330.7017   645.6071 H6            1 RES     
   32650 H6        -478.0047  -329.8540   646.1288 H6            1 RES     
   32651 H6        -478.4243  -331.2368   644.0675 H6            1 RES     
   32652 H6        -479.5106  -331.6847   645.4081 H6            1 RES     
   32653 H6        -478.2242  -333.6346   645.9536 H6            1 RES     
   32654 H6        -478.6982  -333.7565   644.2686 H6            1 RES     
   32655 H6        -475.9461  -332.4836   644.7121 H6            1 RES     
   32656 H6        -476.1293  -334.1223   645.3388 H6            1 RES     
   32657 H6        -476.7044  -335.0288   643.1692 H6            1 RES     
   32658 H6        -475.1550  -334.1127   643.1292 H6            1 RES     
   32659 H6        -476.3385  -332.1638   642.0620 H6            1 RES     
   32660 H6        -476.4495  -333.6875   641.1010 H6            1 RES     
   32661 H6        -477.8733  -333.1330   642.0510 H6            1 RES     
   32662 H6        -474.4034  -330.8780   651.4927 H6            1 RES     
   32663 H6        -474.2529  -332.0520   650.2835 H6            1 RES     
   32664 H6        -475.1268  -334.6938   651.4675 H6            1 RES     
   32665 H6        -475.4405  -334.8148   653.2336 H6            1 RES     
   32666 H6        -476.9947  -332.7176   651.5295 H6            1 RES     
   32667 H6        -478.6684  -332.7947   653.1515 H6            1 RES     
   32668 H6        -477.9251  -334.2050   653.9653 H6            1 RES     
   32669 H6        -477.7234  -332.1194   655.2285 H6            1 RES     
   32670 H6        -476.1313  -332.8751   654.8589 H6            1 RES     
   32671 H6        -475.5902  -331.1390   653.2962 H6            1 RES     
   32672 H6        -477.2607  -330.5351   653.1882 H6            1 RES     
   32673 H6        -475.7008  -329.0386   654.3867 H6            1 RES     
   32674 H6        -477.0387  -329.6622   655.4279 H6            1 RES     
   32675 H6        -475.4716  -331.4180   656.3182 H6            1 RES     
   32676 H6        -474.1054  -330.6954   655.3911 H6            1 RES     
   32677 H6        -474.3970  -328.5779   656.7249 H6            1 RES     
   32678 H6        -475.9166  -329.2573   657.4442 H6            1 RES     
   32679 H6        -473.1055  -330.3511   657.8269 H6            1 RES     
   32680 H6        -474.6268  -331.1742   658.4103 H6            1 RES     
   32681 H6        -473.5565  -328.4378   659.2664 H6            1 RES     
   32682 H6        -473.5729  -329.9771   660.2245 H6            1 RES     
   32683 H6        -475.1348  -329.1816   659.7882 H6            1 RES     
   32684 H6        -477.9312  -335.5605   651.7330 H6            1 RES     
   32685 H6        -477.0848  -334.7948   650.3551 H6            1 RES     
   32686 H6        -478.8856  -333.2777   649.8156 H6            1 RES     
   32687 H6        -479.2697  -334.9807   649.7106 H6            1 RES     
   32688 H6        -480.4794  -333.0662   651.7873 H6            1 RES     
   32689 H6        -481.2109  -333.8264   650.3481 H6            1 RES     
   32690 H6        -480.1856  -335.2276   652.8611 H6            1 RES     
   32691 H6        -480.7039  -336.1248   651.3719 H6            1 RES     
   32692 H6        -483.0068  -335.3592   651.5650 H6            1 RES     
   32693 H6        -482.5820  -334.1953   652.8632 H6            1 RES     
   32694 H6        -483.6532  -336.1548   653.8867 H6            1 RES     
   32695 H6        -481.9655  -335.9337   654.4166 H6            1 RES     
   32696 H6        -482.3290  -338.2918   654.1406 H6            1 RES     
   32697 H6        -481.1900  -337.7557   652.8978 H6            1 RES     
   32698 H6        -483.0180  -337.7869   651.1747 H6            1 RES     
   32699 H6        -482.7514  -339.3766   651.9586 H6            1 RES     
   32700 H6        -485.0660  -337.4249   652.5863 H6            1 RES     
   32701 H6        -485.1471  -338.9392   651.6302 H6            1 RES     
   32702 H6        -484.4974  -340.2783   653.6484 H6            1 RES     
   32703 H6        -484.4718  -338.7621   654.6397 H6            1 RES     
   32704 H6        -486.0057  -339.3227   653.9049 H6            1 RES     
   32705 C0        -463.9019  -338.7983   662.8506 C0            1 RES     
   32706 C0        -465.3907  -337.8877   663.4633 C0            1 RES     
   32707 C0        -466.4345  -338.7909   663.6192 C0            1 RES     
   32708 S1        -467.9901  -338.1083   663.8761 S1            1 RES     
   32709 C0        -467.6927  -336.4757   663.8391 C0            1 RES     
   32710 C0        -466.1519  -336.4909   663.6258 C0            1 RES     
   32711 C0        -466.1607  -340.0727   662.9684 C0            1 RES     
   32712 C0        -465.0367  -339.5472   662.0904 C0            1 RES     
   32713 C0        -465.4994  -339.1906   660.8613 C0            1 RES     
   32714 C0        -466.8252  -339.5278   660.5995 C0            1 RES     
   32715 S1        -467.6100  -340.4405   661.9001 S1            1 RES     
   32716 H2        -465.6792  -335.5298   663.4628 H2            1 RES     
   32717 H2        -464.9771  -338.5166   660.2022 H2            1 RES     
   32718 N3        -471.5888  -335.5961   663.8300 N3            1 RES     
   32719 C0        -470.3825  -336.1784   663.7503 C0            1 RES     
   32720 C0        -469.0835  -335.5154   663.9625 C0            1 RES     
   32721 C0        -469.3416  -334.0923   664.2665 C0            1 RES     
   32722 N3        -468.3775  -333.1504   664.5160 N3            1 RES     
   32723 S1        -469.2492  -331.7640   664.8216 S1            1 RES     
   32724 N3        -470.8222  -332.2357   664.6391 N3            1 RES     
   32725 C0        -470.6943  -333.5348   664.3373 C0            1 RES     
   32726 C0        -471.8226  -334.2853   664.1142 C0            1 RES     
   32727 H4        -470.4331  -337.2140   663.4970 H4            1 RES     
   32728 C5        -450.9065  -353.1041   664.4863 C5            1 RES     
   32729 C5        -451.9196  -351.9282   664.5819 C5            1 RES     
   32730 C5        -451.5475  -350.6994   663.6888 C5            1 RES     
   32731 C5        -452.6541  -349.5596   663.4549 C5            1 RES     
   32732 C5        -453.0318  -348.5258   664.6016 C5            1 RES     
   32733 C5        -454.3334  -347.4899   664.5029 C5            1 RES     
   32734 C5        -454.4635  -346.0999   663.6172 C5            1 RES     
   32735 C5        -455.6321  -344.7971   663.7487 C5            1 RES     
   32736 C5        -457.1764  -344.5154   663.0810 C5            1 RES     
   32737 C5        -458.5253  -343.3265   663.1840 C5            1 RES     
   32738 C5        -459.0191  -341.7721   662.4665 C5            1 RES     
   32739 C5        -457.5189  -341.2349   662.1000 C5            1 RES     
   32740 C5        -456.3839  -341.1351   663.2184 C5            1 RES     
   32741 C5        -454.8847  -341.1246   662.6886 C5            1 RES     
   32742 C5        -453.7722  -340.8442   663.7702 C5            1 RES     
   32743 C5        -454.0271  -339.5801   664.6200 C5            1 RES     
   32744 C5        -454.2580  -338.2937   663.7904 C5            1 RES     
   32745 C5        -453.1774  -337.2122   663.9046 C5            1 RES     
   32746 C5        -451.7873  -337.6487   663.4552 C5            1 RES     
   32747 C5        -460.6039  -340.6012   662.3301 C5            1 RES     
   32748 C0        -462.2702  -339.9267   663.1048 C0            1 RES     
   32749 C5        -461.9083  -339.9362   664.6122 C5            1 RES     
   32750 C5        -461.0770  -341.2025   665.1422 C5            1 RES     
   32751 C5        -461.9653  -342.4044   665.5071 C5            1 RES     
   32752 C5        -462.9993  -342.8728   664.4574 C5            1 RES     
   32753 C5        -462.4433  -343.1752   663.0487 C5            1 RES     
   32754 C5        -463.3922  -343.9484   662.1423 C5            1 RES     
   32755 C5        -464.7562  -343.2696   662.0127 C5            1 RES     
   32756 C5        -465.7479  -344.1912   661.3104 C5            1 RES     
   32757 C5        -467.1556  -343.6363   661.4809 C5            1 RES     
   32758 C5        -468.2227  -344.5897   660.9939 C5            1 RES     
   32759 C5        -460.0969  -340.7959   666.2949 C5            1 RES     
   32760 C5        -458.8617  -341.6861   666.7054 C5            1 RES     
   32761 C5        -459.0015  -343.0006   667.5206 C5            1 RES     
   32762 C5        -459.8021  -342.8013   668.8141 C5            1 RES     
   32763 C5        -459.6977  -343.9875   669.7991 C5            1 RES     
   32764 C5        -460.7866  -343.9224   670.8927 C5            1 RES     
   32765 C5        -460.8152  -342.6370   671.7458 C5            1 RES     
   32766 C5        -459.6011  -342.4293   672.6704 C5            1 RES     
   32767 C5        -459.4051  -343.5217   673.7402 C5            1 RES     
   32768 C5        -460.5969  -343.6631   674.6913 C5            1 RES     
   32769 H6        -450.8299  -353.4966   663.4466 H6            1 RES     
   32770 H6        -449.8880  -352.8202   664.8271 H6            1 RES     
   32771 H6        -451.2405  -353.9607   665.1199 H6            1 RES     
   32772 H6        -452.8934  -352.3423   664.2466 H6            1 RES     
   32773 H6        -452.0010  -351.6239   665.6450 H6            1 RES     
   32774 H6        -450.5730  -350.2830   664.0307 H6            1 RES     
   32775 H6        -451.3546  -351.1493   662.6856 H6            1 RES     
   32776 H6        -453.5685  -350.0962   663.1357 H6            1 RES     
   32777 H6        -452.2815  -348.9559   662.6031 H6            1 RES     
   32778 H6        -452.1006  -347.9786   664.8806 H6            1 RES     
   32779 H6        -453.2374  -349.1965   665.4700 H6            1 RES     
   32780 H6        -454.3998  -347.1423   665.5577 H6            1 RES     
   32781 H6        -455.2091  -348.1332   664.3095 H6            1 RES     
   32782 H6        -453.4987  -345.6224   663.9211 H6            1 RES     
   32783 H6        -454.3091  -346.3704   662.5524 H6            1 RES     
   32784 H6        -455.0029  -343.9751   663.3484 H6            1 RES     
   32785 H6        -455.6598  -344.6304   664.8469 H6            1 RES     
   32786 H6        -457.0165  -344.6967   661.9981 H6            1 RES     
   32787 H6        -457.6592  -345.4303   663.4808 H6            1 RES     
   32788 H6        -458.6575  -343.2343   664.2663 H6            1 RES     
   32789 H6        -459.3392  -343.9796   662.8426 H6            1 RES     
   32790 H6        -459.2007  -342.1611   661.4395 H6            1 RES     
   32791 H6        -457.5231  -340.3295   661.4606 H6            1 RES     
   32792 H6        -457.0810  -342.0275   661.4373 H6            1 RES     
   32793 H6        -456.4174  -341.9932   663.9185 H6            1 RES     
   32794 H6        -456.5882  -340.2159   663.7891 H6            1 RES     
   32795 H6        -454.7741  -340.3880   661.8753 H6            1 RES     
   32796 H6        -454.6186  -342.0956   662.2096 H6            1 RES     
   32797 H6        -452.7742  -340.7552   663.2766 H6            1 RES     
   32798 H6        -453.6921  -341.7049   664.4740 H6            1 RES     
   32799 H6        -454.9440  -339.7932   665.2038 H6            1 RES     
   32800 H6        -453.2390  -339.4242   665.3924 H6            1 RES     
   32801 H6        -454.4361  -338.5093   662.7239 H6            1 RES     
   32802 H6        -455.1941  -337.8284   664.1638 H6            1 RES     
   32803 H6        -453.1233  -336.8556   664.9545 H6            1 RES     
   32804 H6        -453.5002  -336.3607   663.2650 H6            1 RES     
   32805 H6        -451.8036  -338.0107   662.4065 H6            1 RES     
   32806 H6        -451.1052  -336.7726   663.5187 H6            1 RES     
   32807 H6        -451.3928  -338.4434   664.1209 H6            1 RES     
   32808 H6        -461.0008  -340.9482   661.3488 H6            1 RES     
   32809 H6        -460.1140  -339.6616   661.9979 H6            1 RES     
   32810 H6        -461.2907  -339.0228   664.7093 H6            1 RES     
   32811 H6        -462.8269  -339.8065   665.2175 H6            1 RES     
   32812 H6        -460.3888  -341.5707   664.4047 H6            1 RES     
   32813 H6        -461.3021  -343.2591   665.7289 H6            1 RES     
   32814 H6        -462.5279  -342.1576   666.4273 H6            1 RES     
   32815 H6        -463.4534  -343.7991   664.8669 H6            1 RES     
   32816 H6        -463.7912  -342.0983   664.3815 H6            1 RES     
   32817 H6        -462.2821  -342.2539   662.5247 H6            1 RES     
   32818 H6        -461.4985  -343.7378   663.1172 H6            1 RES     
   32819 H6        -462.9351  -344.0551   661.1310 H6            1 RES     
   32820 H6        -463.5135  -344.9564   662.5858 H6            1 RES     
   32821 H6        -465.1543  -343.1014   663.0311 H6            1 RES     
   32822 H6        -464.6764  -342.2852   661.4970 H6            1 RES     
   32823 H6        -465.4870  -344.3098   660.2355 H6            1 RES     
   32824 H6        -465.7122  -345.1823   661.8091 H6            1 RES     
   32825 H6        -467.2278  -342.7098   660.8957 H6            1 RES     
   32826 H6        -467.3485  -343.4429   662.5630 H6            1 RES     
   32827 H6        -468.1098  -344.7530   659.9040 H6            1 RES     
   32828 H6        -469.2180  -344.1421   661.2026 H6            1 RES     
   32829 H6        -468.1415  -345.5527   661.5399 H6            1 RES     
   32830 H6        -460.6685  -340.4892   667.1890 H6            1 RES     
   32831 H6        -459.5835  -339.8906   665.8983 H6            1 RES     
   32832 H6        -458.2190  -341.8827   665.8265 H6            1 RES     
   32833 H6        -458.2401  -341.0310   667.3539 H6            1 RES     
   32834 H6        -459.4403  -343.8266   666.9230 H6            1 RES     
   32835 H6        -457.9660  -343.3202   667.7915 H6            1 RES     
   32836 H6        -460.8585  -342.6530   668.5112 H6            1 RES     
   32837 H6        -459.4343  -341.8959   669.3418 H6            1 RES     
   32838 H6        -458.6796  -344.0243   670.2513 H6            1 RES     
   32839 H6        -459.8544  -344.9438   669.2541 H6            1 RES     
   32840 H6        -460.7110  -344.8123   671.5527 H6            1 RES     
   32841 H6        -461.7667  -343.9922   670.3734 H6            1 RES     
   32842 H6        -461.7352  -342.6500   672.3650 H6            1 RES     
   32843 H6        -460.9132  -341.7558   671.0789 H6            1 RES     
   32844 H6        -458.6783  -342.3556   672.0573 H6            1 RES     
   32845 H6        -459.7339  -341.4556   673.1924 H6            1 RES     
   32846 H6        -459.1988  -344.5002   673.2604 H6            1 RES     
   32847 H6        -458.5141  -343.2495   674.3469 H6            1 RES     
   32848 H6        -460.8073  -342.6972   675.1982 H6            1 RES     
   32849 H6        -461.5045  -344.0001   674.1499 H6            1 RES     
   32850 H6        -460.3652  -344.4257   675.4643 H6            1 RES     
   32851 C0        -476.3965  -332.9189   662.0678 C0            1 RES     
   32852 C0        -476.2966  -334.7359   662.3993 C0            1 RES     
   32853 C0        -476.2045  -334.9357   663.7709 C0            1 RES     
   32854 S1        -475.7867  -336.5242   664.2749 S1            1 RES     
   32855 C0        -475.6142  -337.3387   662.8389 C0            1 RES     
   32856 C0        -475.9673  -336.1980   661.8421 C0            1 RES     
   32857 C0        -475.8928  -333.7008   664.4917 C0            1 RES     
   32858 C0        -475.4037  -332.9435   663.2678 C0            1 RES     
   32859 C0        -474.0519  -333.0357   663.1413 C0            1 RES     
   32860 C0        -473.3896  -333.6332   664.2110 C0            1 RES     
   32861 S1        -474.4471  -334.0685   665.5647 S1            1 RES     
   32862 H2        -475.8413  -336.4224   660.7897 H2            1 RES     
   32863 H2        -473.5287  -332.8635   662.2150 H2            1 RES     
   32864 N3        -474.0898  -340.5542   664.6528 N3            1 RES     
   32865 C0        -474.5319  -339.3327   664.3169 C0            1 RES     
   32866 C0        -475.0903  -338.9412   663.0104 C0            1 RES     
   32867 C0        -475.0664  -340.1278   662.1297 C0            1 RES     
   32868 N3        -475.4985  -340.1551   660.8291 N3            1 RES     
   32869 S1        -475.2634  -341.7386   660.3677 S1            1 RES     
   32870 N3        -474.6065  -342.4490   661.7071 N3            1 RES     
   32871 C0        -474.5676  -341.4305   662.5767 C0            1 RES     
   32872 C0        -474.0729  -341.6460   663.8396 C0            1 RES     
   32873 H4        -474.4350  -338.6204   665.1058 H4            1 RES     
   32874 C5        -484.6623  -315.5963   664.8640 C5            1 RES     
   32875 C5        -484.2147  -317.0667   664.6272 C5            1 RES     
   32876 C5        -483.3392  -317.2622   663.3460 C5            1 RES     
   32877 C5        -482.5598  -318.6531   663.1559 C5            1 RES     
   32878 C5        -483.3291  -319.9836   662.7508 C5            1 RES     
   32879 C5        -482.6206  -321.4917   662.7806 C5            1 RES     
   32880 C5        -481.5494  -322.1349   661.6979 C5            1 RES     
   32881 C5        -481.0608  -323.8048   661.4681 C5            1 RES     
   32882 C5        -479.8537  -324.7942   662.1567 C5            1 RES     
   32883 C5        -479.2917  -326.5051   662.1250 C5            1 RES     
   32884 C5        -478.2219  -327.5623   661.1697 C5            1 RES     
   32885 C5        -478.3366  -326.7422   659.7598 C5            1 RES     
   32886 C5        -479.7570  -326.4383   659.0971 C5            1 RES     
   32887 C5        -479.7993  -325.2265   658.0685 C5            1 RES     
   32888 C5        -481.1508  -325.0387   657.2783 C5            1 RES     
   32889 C5        -481.6554  -326.3222   656.5832 C5            1 RES     
   32890 C5        -480.6157  -326.9894   655.6505 C5            1 RES     
   32891 C5        -480.9434  -326.9758   654.1529 C5            1 RES     
   32892 C5        -481.0880  -325.5855   653.5436 C5            1 RES     
   32893 C5        -477.3578  -329.3353   661.2728 C5            1 RES     
   32894 C0        -477.3796  -331.1836   661.9169 C0            1 RES     
   32895 C5        -478.9005  -331.4814   661.8779 C5            1 RES     
   32896 C5        -479.8742  -330.3070   662.3759 C5            1 RES     
   32897 C5        -480.0748  -330.2883   663.9011 C5            1 RES     
   32898 C5        -478.8087  -330.3153   664.7881 C5            1 RES     
   32899 C5        -477.7518  -329.2292   664.4913 C5            1 RES     
   32900 C5        -476.6938  -329.0579   665.5735 C5            1 RES     
   32901 C5        -475.9880  -330.3718   665.9109 C5            1 RES     
   32902 C5        -475.1253  -330.2106   667.1583 C5            1 RES     
   32903 C5        -474.6994  -331.5857   667.6545 C5            1 RES     
   32904 C5        -474.0133  -331.5347   669.0004 C5            1 RES     
   32905 C5        -481.2254  -330.3153   661.5827 C5            1 RES     
   32906 C5        -482.1762  -329.0587   661.5226 C5            1 RES     
   32907 C5        -483.0751  -328.6219   662.7114 C5            1 RES     
   32908 C5        -483.9543  -329.7679   663.2285 C5            1 RES     
   32909 C5        -485.0775  -329.3073   664.1847 C5            1 RES     
   32910 C5        -485.6898  -330.4926   664.9633 C5            1 RES     
   32911 C5        -486.2748  -331.6361   664.1081 C5            1 RES     
   32912 C5        -487.5282  -331.2754   663.2892 C5            1 RES     
   32913 C5        -488.7483  -330.8425   664.1261 C5            1 RES     
   32914 C5        -489.2234  -331.9155   665.1099 C5            1 RES     
   32915 H6        -483.7889  -314.9159   664.9865 H6            1 RES     
   32916 H6        -485.2963  -315.2041   664.0404 H6            1 RES     
   32917 H6        -485.2562  -315.5152   665.8060 H6            1 RES     
   32918 H6        -483.6212  -317.3481   665.5219 H6            1 RES     
   32919 H6        -485.1212  -317.7033   664.5777 H6            1 RES     
   32920 H6        -483.9388  -316.9841   662.4498 H6            1 RES     
   32921 H6        -482.5494  -316.4793   663.4425 H6            1 RES     
   32922 H6        -482.0205  -318.8225   664.1080 H6            1 RES     
   32923 H6        -481.8160  -318.4684   662.3550 H6            1 RES     
   32924 H6        -483.8357  -319.7948   661.7750 H6            1 RES     
   32925 H6        -484.1575  -320.0180   663.4983 H6            1 RES     
   32926 H6        -483.5184  -322.1423   662.6876 H6            1 RES     
   32927 H6        -482.2271  -321.6131   663.8045 H6            1 RES     
   32928 H6        -482.1014  -321.8882   660.7567 H6            1 RES     
   32929 H6        -480.6623  -321.4692   661.6748 H6            1 RES     
   32930 H6        -480.7922  -323.7477   660.3928 H6            1 RES     
   32931 H6        -482.0393  -324.3305   661.4934 H6            1 RES     
   32932 H6        -478.9385  -324.1745   662.0602 H6            1 RES     
   32933 H6        -480.1878  -324.6924   663.2093 H6            1 RES     
   32934 H6        -480.2296  -327.0493   662.2715 H6            1 RES     
   32935 H6        -478.7851  -326.5239   663.0989 H6            1 RES     
   32936 H6        -477.2679  -327.0651   661.4557 H6            1 RES     
   32937 H6        -477.6098  -327.0832   658.9955 H6            1 RES     
   32938 H6        -477.9992  -325.6998   660.0024 H6            1 RES     
   32939 H6        -480.5193  -326.1750   659.8568 H6            1 RES     
   32940 H6        -480.0736  -327.3673   658.5980 H6            1 RES     
   32941 H6        -478.9782  -325.3189   657.3382 H6            1 RES     
   32942 H6        -479.5971  -324.2560   658.5788 H6            1 RES     
   32943 H6        -481.0368  -324.2322   656.5139 H6            1 RES     
   32944 H6        -481.9573  -324.6974   657.9680 H6            1 RES     
   32945 H6        -481.9000  -327.0277   657.4013 H6            1 RES     
   32946 H6        -482.6250  -326.1644   656.0567 H6            1 RES     
   32947 H6        -479.6005  -326.5850   655.7975 H6            1 RES     
   32948 H6        -480.5579  -328.0597   655.9391 H6            1 RES     
   32949 H6        -481.8781  -327.5479   653.9756 H6            1 RES     
   32950 H6        -480.1113  -327.5005   653.6327 H6            1 RES     
   32951 H6        -480.1687  -324.9846   653.7011 H6            1 RES     
   32952 H6        -481.2581  -325.6959   652.4502 H6            1 RES     
   32953 H6        -481.9612  -325.0572   653.9781 H6            1 RES     
   32954 H6        -476.3632  -329.0287   661.6697 H6            1 RES     
   32955 H6        -477.0850  -329.4726   660.2051 H6            1 RES     
   32956 H6        -479.0731  -331.6718   660.8012 H6            1 RES     
   32957 H6        -479.1131  -332.4125   662.4389 H6            1 RES     
   32958 H6        -479.4934  -329.3343   662.1269 H6            1 RES     
   32959 H6        -480.6429  -329.3760   664.1554 H6            1 RES     
   32960 H6        -480.6870  -331.1651   664.1846 H6            1 RES     
   32961 H6        -479.1637  -330.1902   665.8323 H6            1 RES     
   32962 H6        -478.3416  -331.3181   664.6946 H6            1 RES     
   32963 H6        -477.1879  -329.5095   663.6236 H6            1 RES     
   32964 H6        -478.2349  -328.2530   664.3252 H6            1 RES     
   32965 H6        -475.9391  -328.3084   665.2394 H6            1 RES     
   32966 H6        -477.2105  -328.6662   666.4717 H6            1 RES     
   32967 H6        -476.7611  -331.1224   666.1614 H6            1 RES     
   32968 H6        -475.3934  -330.7505   665.0481 H6            1 RES     
   32969 H6        -474.2439  -329.5643   666.9506 H6            1 RES     
   32970 H6        -475.7462  -329.7424   667.9503 H6            1 RES     
   32971 H6        -473.9953  -332.0065   666.9242 H6            1 RES     
   32972 H6        -475.6004  -332.2354   667.7628 H6            1 RES     
   32973 H6        -473.0722  -330.9559   668.9193 H6            1 RES     
   32974 H6        -473.7852  -332.5742   669.3201 H6            1 RES     
   32975 H6        -474.6899  -331.0705   669.7479 H6            1 RES     
   32976 H6        -481.8014  -331.2267   661.8234 H6            1 RES     
   32977 H6        -480.9066  -330.3914   660.5184 H6            1 RES     
   32978 H6        -481.6230  -328.1739   661.1549 H6            1 RES     
   32979 H6        -482.8975  -329.2848   660.7074 H6            1 RES     
   32980 H6        -482.4912  -328.1814   663.5463 H6            1 RES     
   32981 H6        -483.7409  -327.8112   662.3274 H6            1 RES     
   32982 H6        -483.2771  -330.4730   663.7521 H6            1 RES     
   32983 H6        -484.4366  -330.2814   662.3699 H6            1 RES     
   32984 H6        -485.8621  -328.7535   663.6190 H6            1 RES     
   32985 H6        -484.6618  -328.6110   664.9454 H6            1 RES     
   32986 H6        -486.4587  -330.1200   665.6727 H6            1 RES     
   32987 H6        -484.8728  -330.9286   665.5776 H6            1 RES     
   32988 H6        -486.5210  -332.4831   664.7804 H6            1 RES     
   32989 H6        -485.4929  -332.0160   663.4188 H6            1 RES     
   32990 H6        -487.2795  -330.4671   662.5699 H6            1 RES     
   32991 H6        -487.8172  -332.1722   662.6972 H6            1 RES     
   32992 H6        -488.5251  -329.9078   664.6802 H6            1 RES     
   32993 H6        -489.5841  -330.6273   663.4253 H6            1 RES     
   32994 H6        -489.4720  -332.8549   664.5714 H6            1 RES     
   32995 H6        -488.4517  -332.1250   665.8786 H6            1 RES     
   32996 H6        -490.1330  -331.5579   665.6368 H6            1 RES     
   32997 C0        -470.3550  -344.8875   665.4660 C0            1 RES     
   32998 C0        -470.9679  -343.7926   666.8249 C0            1 RES     
   32999 C0        -472.2961  -344.1048   667.0860 C0            1 RES     
   33000 S1        -473.1470  -342.9999   668.0895 S1            1 RES     
   33001 C0        -472.0051  -341.8425   668.4234 C0            1 RES     
   33002 C0        -470.7893  -342.4400   667.6589 C0            1 RES     
   33003 C0        -472.8873  -344.9354   666.0363 C0            1 RES     
   33004 C0        -471.8188  -344.6321   664.9986 C0            1 RES     
   33005 C0        -472.1962  -343.6036   664.1914 C0            1 RES     
   33006 C0        -473.5079  -343.1645   664.3545 C0            1 RES     
   33007 S1        -474.4462  -344.1072   665.5255 S1            1 RES     
   33008 H2        -469.8966  -341.8274   667.6205 H2            1 RES     
   33009 H2        -471.5017  -343.0160   663.6135 H2            1 RES     
   33010 N3        -474.7011  -339.4322   670.1192 N3            1 RES     
   33011 C0        -474.0514  -340.3833   669.4310 C0            1 RES     
   33012 C0        -472.5890  -340.5347   669.3293 C0            1 RES     
   33013 C0        -471.9622  -339.4467   670.1089 C0            1 RES     
   33014 N3        -470.6127  -339.2493   670.2459 N3            1 RES     
   33015 S1        -470.5072  -337.9196   671.2440 S1            1 RES     
   33016 N3        -472.0826  -337.5114   671.5294 N3            1 RES     
   33017 C0        -472.7466  -338.4462   670.8364 C0            1 RES     
   33018 C0        -474.1199  -338.4337   670.8395 C0            1 RES     
   33019 H4        -474.7074  -341.0555   668.9239 H4            1 RES     
   33020 C5        -467.4085  -362.5034   657.9021 C5            1 RES     
   33021 C5        -467.5689  -361.1819   658.7061 C5            1 RES     
   33022 C5        -466.7271  -359.9916   658.1398 C5            1 RES     
   33023 C5        -467.0366  -358.5106   658.6776 C5            1 RES     
   33024 C5        -466.5882  -358.0478   660.1306 C5            1 RES     
   33025 C5        -467.0929  -356.6217   660.8296 C5            1 RES     
   33026 C5        -466.5707  -355.0873   660.5034 C5            1 RES     
   33027 C5        -466.7819  -353.6143   661.4339 C5            1 RES     
   33028 C5        -467.9941  -352.4160   661.5012 C5            1 RES     
   33029 C5        -468.4203  -350.9394   662.4403 C5            1 RES     
   33030 C5        -468.0770  -349.1909   662.4455 C5            1 RES     
   33031 C5        -466.6128  -349.2720   661.7223 C5            1 RES     
   33032 C5        -465.4511  -350.1925   662.3157 C5            1 RES     
   33033 C5        -464.3059  -350.6110   661.2951 C5            1 RES     
   33034 C5        -463.0684  -351.3646   661.9171 C5            1 RES     
   33035 C5        -462.4395  -350.6445   663.1301 C5            1 RES     
   33036 C5        -462.0482  -349.1713   662.8605 C5            1 RES     
   33037 C5        -460.5478  -348.8563   662.8758 C5            1 RES     
   33038 C5        -459.7265  -349.6108   661.8360 C5            1 RES     
   33039 C5        -468.7442  -347.5179   663.2559 C5            1 RES     
   33040 C0        -469.6071  -346.6006   664.7544 C0            1 RES     
   33041 C5        -469.0750  -347.4378   665.9457 C5            1 RES     
   33042 C5        -469.0130  -349.0274   665.7342 C5            1 RES     
   33043 C5        -470.3461  -349.7339   666.0345 C5            1 RES     
   33044 C5        -471.6186  -349.1757   665.3565 C5            1 RES     
   33045 C5        -471.5581  -349.0309   663.8202 C5            1 RES     
   33046 C5        -472.9070  -348.8116   663.1477 C5            1 RES     
   33047 C5        -473.6655  -347.6226   663.7384 C5            1 RES     
   33048 C5        -475.0990  -347.5907   663.2184 C5            1 RES     
   33049 C5        -475.9137  -346.6123   664.0535 C5            1 RES     
   33050 C5        -477.3918  -346.6676   663.7421 C5            1 RES     
   33051 C5        -467.8022  -349.6557   666.5050 C5            1 RES     
   33052 C5        -467.2210  -351.0775   666.1480 C5            1 RES     
   33053 C5        -467.9331  -352.4025   666.5343 C5            1 RES     
   33054 C5        -468.2690  -352.4685   668.0297 C5            1 RES     
   33055 C5        -468.6833  -353.8769   668.5126 C5            1 RES     
   33056 C5        -469.3612  -353.8313   669.8998 C5            1 RES     
   33057 C5        -468.5352  -353.1960   671.0378 C5            1 RES     
   33058 C5        -467.2802  -353.9812   671.4625 C5            1 RES     
   33059 C5        -467.5541  -355.3947   672.0135 C5            1 RES     
   33060 C5        -468.4533  -355.4013   673.2529 C5            1 RES     
   33061 H6        -467.7303  -362.3810   656.8427 H6            1 RES     
   33062 H6        -466.3647  -362.8834   657.9072 H6            1 RES     
   33063 H6        -468.0545  -363.3050   658.3342 H6            1 RES     
   33064 H6        -468.6474  -360.9256   658.6513 H6            1 RES     
   33065 H6        -467.2962  -361.3813   659.7622 H6            1 RES     
   33066 H6        -465.6456  -360.2495   658.2010 H6            1 RES     
   33067 H6        -466.9798  -359.9816   657.0526 H6            1 RES     
   33068 H6        -468.1321  -358.3831   658.5791 H6            1 RES     
   33069 H6        -466.5343  -357.8261   657.9650 H6            1 RES     
   33070 H6        -465.4796  -358.1566   660.1905 H6            1 RES     
   33071 H6        -466.9886  -358.8657   660.7763 H6            1 RES     
   33072 H6        -466.7853  -356.7904   661.8855 H6            1 RES     
   33073 H6        -468.1956  -356.6504   660.7964 H6            1 RES     
   33074 H6        -465.4692  -355.2764   660.5525 H6            1 RES     
   33075 H6        -466.7652  -354.8931   659.4286 H6            1 RES     
   33076 H6        -465.8766  -353.0737   661.0877 H6            1 RES     
   33077 H6        -466.5360  -353.9603   662.4608 H6            1 RES     
   33078 H6        -468.1377  -352.1466   660.4345 H6            1 RES     
   33079 H6        -468.8314  -353.0935   661.7656 H6            1 RES     
   33080 H6        -468.3035  -351.2902   663.4702 H6            1 RES     
   33081 H6        -469.5018  -350.9372   662.2508 H6            1 RES     
   33082 H6        -468.6057  -348.9576   661.4941 H6            1 RES     
   33083 H6        -466.2169  -348.2803   661.4248 H6            1 RES     
   33084 H6        -466.8008  -349.7886   660.7441 H6            1 RES     
   33085 H6        -465.8418  -351.1577   662.6944 H6            1 RES     
   33086 H6        -465.0170  -349.6396   663.1631 H6            1 RES     
   33087 H6        -463.9377  -349.7244   660.7524 H6            1 RES     
   33088 H6        -464.7036  -351.2724   660.4904 H6            1 RES     
   33089 H6        -462.2831  -351.5167   661.1375 H6            1 RES     
   33090 H6        -463.3671  -352.3836   662.2561 H6            1 RES     
   33091 H6        -463.2129  -350.6651   663.9228 H6            1 RES     
   33092 H6        -461.5856  -351.2144   663.5637 H6            1 RES     
   33093 H6        -462.4842  -348.7866   661.9237 H6            1 RES     
   33094 H6        -462.4949  -348.5611   663.6731 H6            1 RES     
   33095 H6        -460.1376  -349.0689   663.8852 H6            1 RES     
   33096 H6        -460.4420  -347.7659   662.6808 H6            1 RES     
   33097 H6        -460.1087  -349.4196   660.8121 H6            1 RES     
   33098 H6        -458.6736  -349.2575   661.8946 H6            1 RES     
   33099 H6        -459.7381  -350.7002   662.0440 H6            1 RES     
   33100 H6        -469.4181  -347.1769   662.4370 H6            1 RES     
   33101 H6        -467.8766  -346.8543   663.0556 H6            1 RES     
   33102 H6        -468.0487  -347.0419   666.0689 H6            1 RES     
   33103 H6        -469.6563  -347.2000   666.8582 H6            1 RES     
   33104 H6        -468.7732  -349.2905   664.7211 H6            1 RES     
   33105 H6        -470.2426  -350.7915   665.7340 H6            1 RES     
   33106 H6        -470.5212  -349.7021   667.1265 H6            1 RES     
   33107 H6        -472.4372  -349.8791   665.6153 H6            1 RES     
   33108 H6        -471.8482  -348.1887   665.8099 H6            1 RES     
   33109 H6        -470.9997  -348.1512   663.5677 H6            1 RES     
   33110 H6        -471.0872  -349.9171   663.3653 H6            1 RES     
   33111 H6        -472.7549  -348.6472   662.0556 H6            1 RES     
   33112 H6        -473.4936  -349.7407   663.2891 H6            1 RES     
   33113 H6        -473.7341  -347.7683   664.8329 H6            1 RES     
   33114 H6        -473.1374  -346.6614   663.5418 H6            1 RES     
   33115 H6        -475.1240  -347.3206   662.1395 H6            1 RES     
   33116 H6        -475.5391  -348.6005   663.3551 H6            1 RES     
   33117 H6        -475.5530  -345.5982   663.8353 H6            1 RES     
   33118 H6        -475.7905  -346.8573   665.1354 H6            1 RES     
   33119 H6        -477.5649  -346.3603   662.6919 H6            1 RES     
   33120 H6        -477.9231  -345.9719   664.4264 H6            1 RES     
   33121 H6        -477.7717  -347.6966   663.9118 H6            1 RES     
   33122 H6        -467.9557  -349.5616   667.5948 H6            1 RES     
   33123 H6        -466.9448  -349.0006   666.2293 H6            1 RES     
   33124 H6        -466.9461  -351.1239   665.0773 H6            1 RES     
   33125 H6        -466.2462  -351.1297   666.6801 H6            1 RES     
   33126 H6        -468.8451  -352.5869   665.9292 H6            1 RES     
   33127 H6        -467.2210  -353.2293   666.2952 H6            1 RES     
   33128 H6        -469.0982  -351.7517   668.1984 H6            1 RES     
   33129 H6        -467.3821  -352.1599   668.6228 H6            1 RES     
   33130 H6        -467.7997  -354.5562   668.5224 H6            1 RES     
   33131 H6        -469.4288  -354.3107   667.8110 H6            1 RES     
   33132 H6        -469.6869  -354.8516   670.1934 H6            1 RES     
   33133 H6        -470.2836  -353.2220   669.7857 H6            1 RES     
   33134 H6        -469.1945  -353.0750   671.9214 H6            1 RES     
   33135 H6        -468.2338  -352.1695   670.7440 H6            1 RES     
   33136 H6        -466.5841  -354.0589   670.6010 H6            1 RES     
   33137 H6        -466.7652  -353.3958   672.2564 H6            1 RES     
   33138 H6        -468.0049  -356.0352   671.2280 H6            1 RES     
   33139 H6        -466.5782  -355.8457   672.2968 H6            1 RES     
   33140 H6        -468.0085  -354.7809   674.0600 H6            1 RES     
   33141 H6        -469.4682  -355.0224   673.0143 H6            1 RES     
   33142 H6        -468.5628  -356.4415   673.6253 H6            1 RES     
   33143 C0        -477.4263  -334.4391   671.1336 C0            1 RES     
   33144 C0        -478.2987  -336.0466   670.8579 C0            1 RES     
   33145 C0        -478.1143  -336.8527   671.9741 C0            1 RES     
   33146 S1        -478.5727  -338.4992   671.7990 S1            1 RES     
   33147 C0        -479.1136  -338.5720   670.2314 C0            1 RES     
   33148 C0        -478.9295  -337.0839   669.8173 C0            1 RES     
   33149 C0        -477.0597  -336.3483   672.8544 C0            1 RES     
   33150 C0        -476.4366  -335.4301   671.8154 C0            1 RES     
   33151 C0        -475.4040  -336.0428   671.1749 C0            1 RES     
   33152 C0        -475.0227  -337.2764   671.6972 C0            1 RES     
   33153 S1        -475.9106  -337.7503   673.1558 S1            1 RES     
   33154 H2        -479.1198  -336.8468   668.7774 H2            1 RES     
   33155 H2        -475.0298  -335.7280   670.2146 H2            1 RES     
   33156 N3        -479.3600  -342.5575   670.3245 N3            1 RES     
   33157 C0        -479.0979  -341.2609   670.5495 C0            1 RES     
   33158 C0        -479.5464  -340.1285   669.7198 C0            1 RES     
   33159 C0        -480.3259  -340.6724   668.5881 C0            1 RES     
   33160 N3        -480.9025  -339.9248   667.5943 N3            1 RES     
   33161 S1        -481.6622  -341.0576   666.6378 S1            1 RES     
   33162 N3        -481.3046  -342.4967   667.3666 N3            1 RES     
   33163 C0        -480.5689  -342.1067   668.4162 C0            1 RES     
   33164 C0        -480.0818  -343.0544   669.2826 C0            1 RES     
   33165 H4        -478.4974  -341.0992   671.4170 H4            1 RES     
   33166 C5        -474.1271  -318.5308   681.7286 C5            1 RES     
   33167 C5        -474.6144  -319.7692   680.9240 C5            1 RES     
   33168 C5        -474.2132  -319.7387   679.4127 C5            1 RES     
   33169 C5        -474.3781  -321.0825   678.5494 C5            1 RES     
   33170 C5        -475.8089  -321.5996   678.0893 C5            1 RES     
   33171 C5        -476.0614  -323.1011   677.4119 C5            1 RES     
   33172 C5        -475.7167  -323.5943   675.8719 C5            1 RES     
   33173 C5        -476.2800  -325.0094   675.0000 C5            1 RES     
   33174 C5        -475.7322  -326.6197   674.8696 C5            1 RES     
   33175 C5        -476.2266  -328.1872   674.1331 C5            1 RES     
   33176 C5        -476.0920  -329.0590   672.5850 C5            1 RES     
   33177 C5        -475.9573  -327.7426   671.6246 C5            1 RES     
   33178 C5        -477.0552  -326.5839   671.6568 C5            1 RES     
   33179 C5        -476.5831  -325.1636   671.1200 C5            1 RES     
   33180 C5        -477.7095  -324.0691   670.9803 C5            1 RES     
   33181 C5        -478.9445  -324.5376   670.1802 C5            1 RES     
   33182 C5        -478.6147  -325.1022   668.7771 C5            1 RES     
   33183 C5        -479.1150  -324.2813   667.5829 C5            1 RES     
   33184 C5        -478.5602  -322.8631   667.5058 C5            1 RES     
   33185 C5        -476.3526  -330.8683   671.8370 C5            1 RES     
   33186 C0        -477.2916  -332.5855   671.8727 C0            1 RES     
   33187 C5        -478.7050  -332.1284   672.3161 C5            1 RES     
   33188 C5        -478.7695  -331.0045   673.4598 C5            1 RES     
   33189 C5        -478.6783  -331.5792   674.8839 C5            1 RES     
   33190 C5        -477.5171  -332.5537   675.1876 C5            1 RES     
   33191 C5        -476.0994  -332.0421   674.8509 C5            1 RES     
   33192 C5        -474.9668  -332.8569   675.4618 C5            1 RES     
   33193 C5        -475.0645  -334.3424   675.1132 C5            1 RES     
   33194 C5        -474.0705  -335.1523   675.9393 C5            1 RES     
   33195 C5        -474.4053  -336.6326   675.8167 C5            1 RES     
   33196 C5        -473.6009  -337.4941   676.7630 C5            1 RES     
   33197 C5        -480.0049  -330.0617   673.2600 C5            1 RES     
   33198 C5        -480.0945  -328.6357   673.9273 C5            1 RES     
   33199 C5        -480.3959  -328.4266   675.4364 C5            1 RES     
   33200 C5        -481.6662  -329.1613   675.8838 C5            1 RES     
   33201 C5        -482.1750  -328.7312   677.2782 C5            1 RES     
   33202 C5        -483.2072  -329.7306   677.8455 C5            1 RES     
   33203 C5        -484.4559  -329.9834   676.9749 C5            1 RES     
   33204 C5        -485.4111  -328.7847   676.8240 C5            1 RES     
   33205 C5        -486.0334  -328.2804   678.1411 C5            1 RES     
   33206 C5        -486.8583  -329.3440   678.8711 C5            1 RES     
   33207 H6        -473.0169  -318.4407   681.7110 H6            1 RES     
   33208 H6        -474.5595  -317.5790   681.3528 H6            1 RES     
   33209 H6        -474.4160  -318.6239   682.8031 H6            1 RES     
   33210 H6        -474.1422  -320.6483   681.4100 H6            1 RES     
   33211 H6        -475.7156  -319.8429   681.0311 H6            1 RES     
   33212 H6        -474.6925  -318.8589   678.9268 H6            1 RES     
   33213 H6        -473.1187  -319.5203   679.4332 H6            1 RES     
   33214 H6        -473.8788  -321.8759   679.1387 H6            1 RES     
   33215 H6        -473.7967  -320.9111   677.6213 H6            1 RES     
   33216 H6        -476.2745  -320.7950   677.4726 H6            1 RES     
   33217 H6        -476.3847  -321.5927   679.0456 H6            1 RES     
   33218 H6        -477.1702  -323.1703   677.4732 H6            1 RES     
   33219 H6        -475.6431  -323.8246   678.1326 H6            1 RES     
   33220 H6        -476.1817  -322.7399   675.3195 H6            1 RES     
   33221 H6        -474.6268  -323.4570   675.7167 H6            1 RES     
   33222 H6        -476.2015  -324.6056   673.9692 H6            1 RES     
   33223 H6        -477.3666  -324.9982   675.2321 H6            1 RES     
   33224 H6        -474.6567  -326.4980   674.6257 H6            1 RES     
   33225 H6        -475.7798  -326.8606   675.9511 H6            1 RES     
   33226 H6        -477.2708  -328.2622   674.4515 H6            1 RES     
   33227 H6        -475.6671  -328.8585   674.7978 H6            1 RES     
   33228 H6        -474.9915  -329.2200   672.6281 H6            1 RES     
   33229 H6        -475.6753  -327.9897   670.5815 H6            1 RES     
   33230 H6        -475.0651  -327.1870   672.0177 H6            1 RES     
   33231 H6        -477.4101  -326.3796   672.6863 H6            1 RES     
   33232 H6        -477.9088  -326.9462   671.0631 H6            1 RES     
   33233 H6        -476.0807  -325.2737   670.1445 H6            1 RES     
   33234 H6        -475.7981  -324.7234   671.7782 H6            1 RES     
   33235 H6        -477.2919  -323.1512   670.5000 H6            1 RES     
   33236 H6        -478.0684  -323.7534   671.9874 H6            1 RES     
   33237 H6        -479.4041  -325.3430   670.7859 H6            1 RES     
   33238 H6        -479.7333  -323.7524   670.1222 H6            1 RES     
   33239 H6        -477.5379  -325.3008   668.6478 H6            1 RES     
   33240 H6        -479.1145  -326.0902   668.6973 H6            1 RES     
   33241 H6        -480.2239  -324.2356   667.6066 H6            1 RES     
   33242 H6        -478.8097  -324.8265   666.6621 H6            1 RES     
   33243 H6        -477.4510  -322.8708   667.4787 H6            1 RES     
   33244 H6        -478.9357  -322.3881   666.5730 H6            1 RES     
   33245 H6        -478.9109  -322.2588   668.3673 H6            1 RES     
   33246 H6        -475.3066  -331.2450   671.9070 H6            1 RES     
   33247 H6        -476.3771  -330.6212   670.7545 H6            1 RES     
   33248 H6        -479.1242  -331.7221   671.3757 H6            1 RES     
   33249 H6        -479.3049  -333.0096   672.6175 H6            1 RES     
   33250 H6        -477.9592  -330.3039   673.3831 H6            1 RES     
   33251 H6        -478.5959  -330.7304   675.5855 H6            1 RES     
   33252 H6        -479.6189  -332.1182   675.1049 H6            1 RES     
   33253 H6        -477.5701  -332.7635   676.2762 H6            1 RES     
   33254 H6        -477.7063  -333.5000   674.6387 H6            1 RES     
   33255 H6        -475.9334  -332.1239   673.7948 H6            1 RES     
   33256 H6        -475.9795  -330.9941   675.1690 H6            1 RES     
   33257 H6        -473.9885  -332.4575   675.1061 H6            1 RES     
   33258 H6        -475.0276  -332.7225   676.5597 H6            1 RES     
   33259 H6        -476.0718  -334.6974   675.4017 H6            1 RES     
   33260 H6        -474.9272  -334.5168   674.0214 H6            1 RES     
   33261 H6        -473.0258  -334.9456   675.6178 H6            1 RES     
   33262 H6        -474.1911  -334.8652   677.0047 H6            1 RES     
   33263 H6        -474.1806  -336.9470   674.7887 H6            1 RES     
   33264 H6        -475.4839  -336.7892   676.0569 H6            1 RES     
   33265 H6        -472.5244  -337.4226   676.5111 H6            1 RES     
   33266 H6        -473.9395  -338.5470   676.6563 H6            1 RES     
   33267 H6        -473.7762  -337.1658   677.8087 H6            1 RES     
   33268 H6        -480.9418  -330.6245   673.4197 H6            1 RES     
   33269 H6        -479.9573  -329.7887   672.1814 H6            1 RES     
   33270 H6        -479.2112  -328.0270   673.6563 H6            1 RES     
   33271 H6        -480.9397  -328.1310   673.4106 H6            1 RES     
   33272 H6        -479.5410  -328.7123   676.0840 H6            1 RES     
   33273 H6        -480.5519  -327.3301   675.5820 H6            1 RES     
   33274 H6        -481.4200  -330.2426   675.8878 H6            1 RES     
   33275 H6        -482.4825  -328.9668   675.1561 H6            1 RES     
   33276 H6        -482.5995  -327.7017   677.2327 H6            1 RES     
   33277 H6        -481.3275  -328.7102   677.9977 H6            1 RES     
   33278 H6        -483.5148  -329.4159   678.8651 H6            1 RES     
   33279 H6        -482.6830  -330.7043   677.9561 H6            1 RES     
   33280 H6        -485.0187  -330.8335   677.4113 H6            1 RES     
   33281 H6        -484.1384  -330.3184   675.9660 H6            1 RES     
   33282 H6        -484.8752  -327.9449   676.3339 H6            1 RES     
   33283 H6        -486.2391  -329.0929   676.1475 H6            1 RES     
   33284 H6        -485.2441  -327.8968   678.8197 H6            1 RES     
   33285 H6        -486.7090  -327.4321   677.8967 H6            1 RES     
   33286 H6        -487.6685  -329.7271   678.2144 H6            1 RES     
   33287 H6        -486.2210  -330.1899   679.2008 H6            1 RES     
   33288 H6        -487.3186  -328.8979   679.7777 H6            1 RES     
   33289 C0        -478.5812  -347.9455   668.3882 C0            1 RES     
   33290 C0        -478.2569  -347.4255   670.1334 C0            1 RES     
   33291 C0        -479.4728  -347.1983   670.7655 C0            1 RES     
   33292 S1        -479.3945  -346.4074   672.2888 S1            1 RES     
   33293 C0        -477.7667  -346.1580   672.4971 C0            1 RES     
   33294 C0        -477.2276  -346.8209   671.1973 C0            1 RES     
   33295 C0        -480.5845  -347.1179   669.8172 C0            1 RES     
   33296 C0        -479.7101  -346.8922   668.5945 C0            1 RES     
   33297 C0        -479.5777  -345.5652   668.3238 C0            1 RES     
   33298 C0        -480.3794  -344.7162   669.0829 C0            1 RES     
   33299 S1        -481.4805  -345.5570   670.1879 S1            1 RES     
   33300 H2        -476.1651  -346.7206   671.0109 H2            1 RES     
   33301 H2        -478.7775  -345.1572   667.7282 H2            1 RES     
   33302 N3        -478.3607  -343.8426   675.6971 N3            1 RES     
   33303 C0        -478.4677  -344.5649   674.5713 C0            1 RES     
   33304 C0        -477.3734  -345.2836   673.8944 C0            1 RES     
   33305 C0        -476.1335  -345.0589   674.6666 C0            1 RES     
   33306 N3        -474.8999  -345.5620   674.3440 N3            1 RES     
   33307 S1        -473.9166  -345.0159   675.5729 S1            1 RES     
   33308 N3        -474.9312  -344.1289   676.5287 N3            1 RES     
   33309 C0        -476.1028  -344.2561   675.8914 C0            1 RES     
   33310 C0        -477.2170  -343.6412   676.4078 C0            1 RES     
   33311 H4        -479.4573  -344.5737   674.1716 H4            1 RES     
   33312 C5        -487.1521  -359.6142   655.4810 C5            1 RES     
   33313 C5        -486.4216  -358.8708   656.6352 C5            1 RES     
   33314 C5        -485.1651  -358.0632   656.1714 C5            1 RES     
   33315 C5        -484.5108  -357.0113   657.1930 C5            1 RES     
   33316 C5        -483.6550  -357.4944   658.4422 C5            1 RES     
   33317 C5        -483.1646  -356.4708   659.6623 C5            1 RES     
   33318 C5        -481.9399  -355.3606   659.6293 C5            1 RES     
   33319 C5        -481.1467  -354.5329   660.9581 C5            1 RES     
   33320 C5        -481.4618  -353.0935   661.8177 C5            1 RES     
   33321 C5        -480.8407  -352.1718   663.2350 C5            1 RES     
   33322 C5        -479.5905  -350.9631   663.6229 C5            1 RES     
   33323 C5        -478.5555  -351.3515   662.4182 C5            1 RES     
   33324 C5        -478.0218  -352.8458   662.2408 C5            1 RES     
   33325 C5        -477.4821  -353.2241   660.7938 C5            1 RES     
   33326 C5        -476.7893  -354.6344   660.6623 C5            1 RES     
   33327 C5        -475.6821  -354.8900   661.7082 C5            1 RES     
   33328 C5        -474.5891  -353.7949   661.7557 C5            1 RES     
   33329 C5        -473.1867  -354.2189   661.3041 C5            1 RES     
   33330 C5        -473.1008  -354.7075   659.8623 C5            1 RES     
   33331 C5        -479.0780  -349.7247   665.0737 C5            1 RES     
   33332 C0        -479.0340  -349.2947   666.9829 C0            1 RES     
   33333 C5        -478.8724  -350.7117   667.5906 C5            1 RES     
   33334 C5        -479.7368  -351.8840   666.9168 C5            1 RES     
   33335 C5        -481.1691  -351.9792   667.4700 C5            1 RES     
   33336 C5        -482.0077  -350.6809   667.5081 C5            1 RES     
   33337 C5        -482.1244  -349.9119   666.1739 C5            1 RES     
   33338 C5        -483.2123  -348.8464   666.1463 C5            1 RES     
   33339 C5        -483.0780  -347.8472   667.2959 C5            1 RES     
   33340 C5        -484.3145  -346.9582   667.3793 C5            1 RES     
   33341 C5        -484.3037  -346.2070   668.7037 C5            1 RES     
   33342 C5        -485.5914  -345.4588   668.9619 C5            1 RES     
   33343 C5        -478.9726  -353.2509   666.9628 C5            1 RES     
   33344 C5        -479.3432  -354.4571   666.0170 C5            1 RES     
   33345 C5        -480.5973  -355.3469   666.2348 C5            1 RES     
   33346 C5        -480.6684  -355.9146   667.6582 C5            1 RES     
   33347 C5        -481.7100  -357.0439   667.8261 C5            1 RES     
   33348 C5        -482.0159  -357.3255   669.3138 C5            1 RES     
   33349 C5        -480.8066  -357.7010   670.1956 C5            1 RES     
   33350 C5        -480.1488  -359.0560   669.8744 C5            1 RES     
   33351 C5        -481.0676  -360.2815   670.0487 C5            1 RES     
   33352 C5        -481.6069  -360.4404   671.4731 C5            1 RES     
   33353 H6        -487.5169  -358.9058   654.7025 H6            1 RES     
   33354 H6        -486.5094  -360.3736   654.9868 H6            1 RES     
   33355 H6        -488.0547  -360.1457   655.8676 H6            1 RES     
   33356 H6        -487.1692  -358.1703   657.0623 H6            1 RES     
   33357 H6        -486.1401  -359.6160   657.4065 H6            1 RES     
   33358 H6        -484.4149  -358.7690   655.7483 H6            1 RES     
   33359 H6        -485.5404  -357.4606   655.3099 H6            1 RES     
   33360 H6        -485.3506  -356.3844   657.5502 H6            1 RES     
   33361 H6        -483.8354  -356.3830   656.5783 H6            1 RES     
   33362 H6        -482.8003  -358.0955   658.0515 H6            1 RES     
   33363 H6        -484.3318  -358.2420   658.9211 H6            1 RES     
   33364 H6        -482.8375  -357.2074   660.4294 H6            1 RES     
   33365 H6        -484.0865  -355.9913   660.0342 H6            1 RES     
   33366 H6        -481.1373  -356.0162   659.2083 H6            1 RES     
   33367 H6        -482.1635  -354.6456   658.8110 H6            1 RES     
   33368 H6        -480.1632  -354.3575   660.4748 H6            1 RES     
   33369 H6        -480.9730  -355.3675   661.6707 H6            1 RES     
   33370 H6        -481.6008  -352.3460   661.0096 H6            1 RES     
   33371 H6        -482.4787  -353.3692   662.1637 H6            1 RES     
   33372 H6        -480.7747  -352.9546   663.9968 H6            1 RES     
   33373 H6        -481.7532  -351.6083   663.4703 H6            1 RES     
   33374 H6        -480.0454  -350.1249   663.0490 H6            1 RES     
   33375 H6        -477.7301  -350.6213   662.2987 H6            1 RES     
   33376 H6        -479.1522  -351.2363   661.4749 H6            1 RES     
   33377 H6        -478.8151  -353.5938   662.4377 H6            1 RES     
   33378 H6        -477.2248  -352.9832   662.9879 H6            1 RES     
   33379 H6        -476.7769  -352.4545   660.4378 H6            1 RES     
   33380 H6        -478.3026  -353.2063   660.0390 H6            1 RES     
   33381 H6        -476.3573  -354.7532   659.6392 H6            1 RES     
   33382 H6        -477.5438  -355.4473   660.7743 H6            1 RES     
   33383 H6        -476.1980  -354.9168   662.6880 H6            1 RES     
   33384 H6        -475.2309  -355.9041   661.6067 H6            1 RES     
   33385 H6        -474.8822  -352.8862   661.2044 H6            1 RES     
   33386 H6        -474.4854  -353.4832   662.8161 H6            1 RES     
   33387 H6        -472.8076  -355.0144   661.9793 H6            1 RES     
   33388 H6        -472.5271  -353.3291   661.4115 H6            1 RES     
   33389 H6        -473.4712  -353.9346   659.1576 H6            1 RES     
   33390 H6        -472.0357  -354.9232   659.6261 H6            1 RES     
   33391 H6        -473.6808  -355.6439   659.7316 H6            1 RES     
   33392 H6        -479.5707  -348.7973   664.7019 H6            1 RES     
   33393 H6        -478.0337  -349.5017   664.7689 H6            1 RES     
   33394 H6        -477.7950  -350.9111   667.4338 H6            1 RES     
   33395 H6        -479.0690  -350.6752   668.6802 H6            1 RES     
   33396 H6        -479.8493  -351.7446   665.8579 H6            1 RES     
   33397 H6        -481.7190  -352.7156   666.8577 H6            1 RES     
   33398 H6        -481.1193  -352.3624   668.5068 H6            1 RES     
   33399 H6        -483.0246  -350.9826   667.8347 H6            1 RES     
   33400 H6        -481.5754  -350.0117   668.2814 H6            1 RES     
   33401 H6        -481.2212  -349.3607   666.0010 H6            1 RES     
   33402 H6        -482.3039  -350.6084   665.3393 H6            1 RES     
   33403 H6        -483.1721  -348.3000   665.1753 H6            1 RES     
   33404 H6        -484.1837  -349.3742   666.2173 H6            1 RES     
   33405 H6        -483.0393  -348.4170   668.2434 H6            1 RES     
   33406 H6        -482.1454  -347.2440   667.2074 H6            1 RES     
   33407 H6        -484.3583  -346.2571   666.5166 H6            1 RES     
   33408 H6        -485.2118  -347.6115   667.3681 H6            1 RES     
   33409 H6        -483.4820  -345.4789   668.6737 H6            1 RES     
   33410 H6        -484.1653  -346.9332   669.5399 H6            1 RES     
   33411 H6        -485.7309  -344.6762   668.1904 H6            1 RES     
   33412 H6        -485.5300  -344.9861   669.9656 H6            1 RES     
   33413 H6        -486.4449  -346.1684   668.9519 H6            1 RES     
   33414 H6        -478.8710  -353.5942   668.0079 H6            1 RES     
   33415 H6        -477.9534  -352.9966   666.5929 H6            1 RES     
   33416 H6        -479.3162  -354.1388   664.9577 H6            1 RES     
   33417 H6        -478.4907  -355.1647   666.1087 H6            1 RES     
   33418 H6        -481.5414  -354.8189   665.9863 H6            1 RES     
   33419 H6        -480.5124  -356.1995   665.5180 H6            1 RES     
   33420 H6        -480.9213  -355.0647   668.3242 H6            1 RES     
   33421 H6        -479.6779  -356.3294   667.9417 H6            1 RES     
   33422 H6        -481.3633  -357.9679   667.3081 H6            1 RES     
   33423 H6        -482.6719  -356.7410   667.3579 H6            1 RES     
   33424 H6        -482.8003  -358.1073   669.3954 H6            1 RES     
   33425 H6        -482.4498  -356.3926   669.7337 H6            1 RES     
   33426 H6        -481.1364  -357.7082   671.2545 H6            1 RES     
   33427 H6        -480.0386  -356.9035   670.1246 H6            1 RES     
   33428 H6        -479.7615  -359.0411   668.8340 H6            1 RES     
   33429 H6        -479.2764  -359.1800   670.5540 H6            1 RES     
   33430 H6        -481.9168  -360.2325   669.3368 H6            1 RES     
   33431 H6        -480.4751  -361.1900   669.8044 H6            1 RES     
   33432 H6        -480.7703  -360.5120   672.2005 H6            1 RES     
   33433 H6        -482.2640  -359.5909   671.7504 H6            1 RES     
   33434 H6        -482.2132  -361.3683   671.5381 H6            1 RES     
   33435 C0        -477.6561  -339.1984   679.0619 C0            1 RES     
   33436 C0        -479.3039  -339.9434   678.6731 C0            1 RES     
   33437 C0        -479.4211  -341.1492   679.3529 C0            1 RES     
   33438 S1        -480.7362  -342.1522   678.8878 S1            1 RES     
   33439 C0        -481.4697  -341.2732   677.6858 C0            1 RES     
   33440 C0        -480.5610  -340.0107   677.6873 C0            1 RES     
   33441 C0        -478.1389  -341.6131   679.8845 C0            1 RES     
   33442 C0        -477.2878  -340.7109   679.0057 C0            1 RES     
   33443 C0        -476.8867  -341.3598   677.8788 C0            1 RES     
   33444 C0        -477.1753  -342.7217   677.8371 C0            1 RES     
   33445 S1        -477.9293  -343.3472   679.3138 S1            1 RES     
   33446 H2        -480.7517  -339.2797   676.9107 H2            1 RES     
   33447 H2        -476.5606  -340.8529   676.9854 H2            1 RES     
   33448 N3        -483.8651  -344.3119   676.6949 N3            1 RES     
   33449 C0        -482.8963  -343.5172   677.1747 C0            1 RES     
   33450 C0        -482.7680  -342.0677   676.9409 C0            1 RES     
   33451 C0        -483.8876  -341.6444   676.0740 C0            1 RES     
   33452 N3        -484.1035  -340.3654   675.6307 N3            1 RES     
   33453 S1        -485.5053  -340.4876   674.7388 S1            1 RES     
   33454 N3        -485.8940  -342.0910   674.8279 N3            1 RES     
   33455 C0        -484.9086  -342.5785   675.5937 C0            1 RES     
   33456 C0        -484.8972  -343.9173   675.8995 C0            1 RES     
   33457 H4        -482.1771  -344.0419   677.7635 H4            1 RES     
   33458 C5        -464.4445  -332.9662   691.8223 C5            1 RES     
   33459 C5        -465.6581  -333.3586   690.9324 C5            1 RES     
   33460 C5        -465.5559  -332.8403   689.4603 C5            1 RES     
   33461 C5        -466.5739  -333.4311   688.3680 C5            1 RES     
   33462 C5        -468.1028  -332.9977   688.3428 C5            1 RES     
   33463 C5        -469.2500  -333.7552   687.4008 C5            1 RES     
   33464 C5        -469.4888  -333.6074   685.7715 C5            1 RES     
   33465 C5        -470.8731  -334.0740   684.7988 C5            1 RES     
   33466 C5        -471.3391  -335.5129   684.0100 C5            1 RES     
   33467 C5        -472.7299  -336.1889   683.0865 C5            1 RES     
   33468 C5        -473.3515  -336.2398   681.4174 C5            1 RES     
   33469 C5        -472.6658  -334.8464   680.9056 C5            1 RES     
   33470 C5        -472.9151  -333.4728   681.6802 C5            1 RES     
   33471 C5        -471.8283  -332.3358   681.4468 C5            1 RES     
   33472 C5        -472.1640  -330.9233   682.0617 C5            1 RES     
   33473 C5        -473.5607  -330.3873   681.6782 C5            1 RES     
   33474 C5        -473.8293  -330.3494   680.1543 C5            1 RES     
   33475 C5        -473.9744  -328.9579   679.5274 C5            1 RES     
   33476 C5        -472.7476  -328.0634   679.6678 C5            1 RES     
   33477 C5        -474.6872  -337.2023   680.3263 C5            1 RES     
   33478 C0        -476.4001  -338.1418   680.2048 C0            1 RES     
   33479 C5        -477.2301  -337.3584   681.2540 C5            1 RES     
   33480 C5        -476.4763  -336.9623   682.6143 C5            1 RES     
   33481 C5        -476.4920  -338.0833   683.6676 C5            1 RES     
   33482 C5        -476.0350  -339.4907   683.2193 C5            1 RES     
   33483 C5        -474.6476  -339.5685   682.5456 C5            1 RES     
   33484 C5        -474.0762  -340.9752   682.4253 C5            1 RES     
   33485 C5        -475.0354  -341.9349   681.7204 C5            1 RES     
   33486 C5        -474.5400  -343.3722   681.8427 C5            1 RES     
   33487 C5        -475.6536  -344.3236   681.4265 C5            1 RES     
   33488 C5        -475.3224  -345.7709   681.7100 C5            1 RES     
   33489 C5        -476.9947  -335.5931   683.1724 C5            1 RES     
   33490 C5        -476.1705  -334.7387   684.2104 C5            1 RES     
   33491 C5        -476.0588  -335.1133   685.7134 C5            1 RES     
   33492 C5        -477.4317  -335.3237   686.3648 C5            1 RES     
   33493 C5        -477.3852  -335.3836   687.9083 C5            1 RES     
   33494 C5        -478.6912  -335.9587   688.4996 C5            1 RES     
   33495 C5        -479.9908  -335.2173   688.1222 C5            1 RES     
   33496 C5        -480.1307  -333.7942   688.6941 C5            1 RES     
   33497 C5        -480.1482  -333.7117   690.2334 C5            1 RES     
   33498 C5        -481.2945  -334.5008   690.8723 C5            1 RES     
   33499 H6        -463.4907  -333.3785   691.4209 H6            1 RES     
   33500 H6        -464.3305  -331.8665   691.9297 H6            1 RES     
   33501 H6        -464.5598  -333.3888   692.8494 H6            1 RES     
   33502 H6        -465.6817  -334.4683   690.9285 H6            1 RES     
   33503 H6        -466.5811  -332.9773   691.4141 H6            1 RES     
   33504 H6        -465.5376  -331.7270   689.4671 H6            1 RES     
   33505 H6        -464.5376  -333.1626   689.1357 H6            1 RES     
   33506 H6        -466.5113  -334.5318   688.4703 H6            1 RES     
   33507 H6        -466.1528  -333.1417   687.3843 H6            1 RES     
   33508 H6        -468.1360  -331.8909   688.2072 H6            1 RES     
   33509 H6        -468.4159  -333.1630   689.4015 H6            1 RES     
   33510 H6        -470.1840  -333.3468   687.8464 H6            1 RES     
   33511 H6        -469.1938  -334.8242   687.6694 H6            1 RES     
   33512 H6        -469.4836  -332.4907   685.7070 H6            1 RES     
   33513 H6        -468.5475  -333.9128   685.2701 H6            1 RES     
   33514 H6        -470.7504  -333.3358   683.9792 H6            1 RES     
   33515 H6        -471.7171  -333.6885   685.4101 H6            1 RES     
   33516 H6        -470.4324  -335.7848   683.4312 H6            1 RES     
   33517 H6        -471.3381  -336.1604   684.9104 H6            1 RES     
   33518 H6        -473.5732  -335.9278   683.7330 H6            1 RES     
   33519 H6        -472.5384  -337.2546   683.2684 H6            1 RES     
   33520 H6        -472.5349  -336.8704   680.9997 H6            1 RES     
   33521 H6        -472.7397  -334.6999   679.8094 H6            1 RES     
   33522 H6        -471.5661  -334.9822   681.0830 H6            1 RES     
   33523 H6        -472.9266  -333.6145   682.7790 H6            1 RES     
   33524 H6        -473.9082  -333.1144   681.3681 H6            1 RES     
   33525 H6        -471.6354  -332.2099   680.3683 H6            1 RES     
   33526 H6        -470.8376  -332.6320   681.8640 H6            1 RES     
   33527 H6        -471.3912  -330.1788   681.7515 H6            1 RES     
   33528 H6        -472.1206  -330.9664   683.1748 H6            1 RES     
   33529 H6        -474.2854  -331.0813   682.1475 H6            1 RES     
   33530 H6        -473.7789  -329.4012   682.1495 H6            1 RES     
   33531 H6        -473.0806  -330.9223   679.5824 H6            1 RES     
   33532 H6        -474.7979  -330.8632   679.9809 H6            1 RES     
   33533 H6        -474.8510  -328.4430   679.9734 H6            1 RES     
   33534 H6        -474.1749  -329.1084   678.4432 H6            1 RES     
   33535 H6        -471.8502  -328.5472   679.2298 H6            1 RES     
   33536 H6        -472.9405  -327.1127   679.1239 H6            1 RES     
   33537 H6        -472.5608  -327.8204   680.7339 H6            1 RES     
   33538 H6        -474.0304  -337.9890   679.8896 H6            1 RES     
   33539 H6        -474.7437  -336.5178   679.4536 H6            1 RES     
   33540 H6        -477.4980  -336.4386   680.6996 H6            1 RES     
   33541 H6        -478.1600  -337.9141   681.4849 H6            1 RES     
   33542 H6        -475.4385  -336.7401   682.4504 H6            1 RES     
   33543 H6        -475.8416  -337.7701   684.5034 H6            1 RES     
   33544 H6        -477.5235  -338.1863   684.0542 H6            1 RES     
   33545 H6        -476.0201  -340.1146   684.1371 H6            1 RES     
   33546 H6        -476.8022  -339.9007   682.5294 H6            1 RES     
   33547 H6        -474.7267  -339.2362   681.5293 H6            1 RES     
   33548 H6        -473.9178  -338.9461   683.0877 H6            1 RES     
   33549 H6        -473.1130  -340.9379   681.8653 H6            1 RES     
   33550 H6        -473.8754  -341.3317   683.4549 H6            1 RES     
   33551 H6        -476.0085  -341.8949   682.2450 H6            1 RES     
   33552 H6        -475.1950  -341.6462   680.6562 H6            1 RES     
   33553 H6        -473.6237  -343.5297   681.2318 H6            1 RES     
   33554 H6        -474.3085  -343.5688   682.9104 H6            1 RES     
   33555 H6        -475.8092  -344.2109   680.3452 H6            1 RES     
   33556 H6        -476.5828  -344.0760   681.9930 H6            1 RES     
   33557 H6        -474.4439  -346.0787   681.1093 H6            1 RES     
   33558 H6        -476.1996  -346.3946   681.4342 H6            1 RES     
   33559 H6        -475.1159  -345.9023   682.7927 H6            1 RES     
   33560 H6        -478.0463  -335.6889   683.4966 H6            1 RES     
   33561 H6        -476.9775  -334.9219   682.2839 H6            1 RES     
   33562 H6        -475.1552  -334.5340   683.8214 H6            1 RES     
   33563 H6        -476.6639  -333.7425   684.2164 H6            1 RES     
   33564 H6        -475.4150  -336.0014   685.8833 H6            1 RES     
   33565 H6        -475.5550  -334.2546   686.2201 H6            1 RES     
   33566 H6        -477.8294  -336.2770   685.9610 H6            1 RES     
   33567 H6        -478.1073  -334.4883   686.0835 H6            1 RES     
   33568 H6        -477.1686  -334.3735   688.3267 H6            1 RES     
   33569 H6        -476.5661  -336.0613   688.2339 H6            1 RES     
   33570 H6        -478.6046  -336.0308   689.6044 H6            1 RES     
   33571 H6        -478.7851  -336.9982   688.1180 H6            1 RES     
   33572 H6        -480.8517  -335.8253   688.4674 H6            1 RES     
   33573 H6        -480.0790  -335.1702   687.0173 H6            1 RES     
   33574 H6        -479.3062  -333.1585   688.3085 H6            1 RES     
   33575 H6        -481.0863  -333.3680   688.3154 H6            1 RES     
   33576 H6        -479.1822  -334.0629   690.6504 H6            1 RES     
   33577 H6        -480.2690  -332.6435   690.5167 H6            1 RES     
   33578 H6        -482.2738  -334.1496   690.4825 H6            1 RES     
   33579 H6        -481.1899  -335.5880   690.6790 H6            1 RES     
   33580 H6        -481.2777  -334.3527   691.9726 H6            1 RES     
   33581 C0        -486.5261  -347.9945   673.1250 C0            1 RES     
   33582 C0        -485.6931  -348.5080   674.6946 C0            1 RES     
   33583 C0        -486.4589  -348.0749   675.7696 C0            1 RES     
   33584 S1        -485.7123  -348.1701   677.3141 S1            1 RES     
   33585 C0        -484.2112  -348.7873   676.9661 C0            1 RES     
   33586 C0        -484.3468  -348.9643   675.4266 C0            1 RES     
   33587 C0        -487.4744  -347.0998   675.3701 C0            1 RES     
   33588 C0        -486.8312  -346.7667   674.0337 C0            1 RES     
   33589 C0        -486.0309  -345.6706   674.1337 C0            1 RES     
   33590 C0        -486.0934  -344.9922   675.3485 C0            1 RES     
   33591 S1        -487.2815  -345.6523   676.4856 S1            1 RES     
   33592 H2        -483.4533  -349.2726   674.8971 H2            1 RES     
   33593 H2        -485.2467  -345.4413   673.4308 H2            1 RES     
   33594 N3        -482.8997  -348.1427   680.6833 N3            1 RES     
   33595 C0        -483.5679  -348.1580   679.5199 C0            1 RES     
   33596 C0        -483.1812  -348.9005   678.3070 C0            1 RES     
   33597 C0        -481.9201  -349.6163   678.5927 C0            1 RES     
   33598 N3        -481.2432  -350.4098   677.7033 N3            1 RES     
   33599 S1        -479.9403  -350.9647   678.5808 S1            1 RES     
   33600 N3        -480.1241  -350.2500   680.0591 N3            1 RES     
   33601 C0        -481.2537  -349.5485   679.8954 C0            1 RES     
   33602 C0        -481.7400  -348.8067   680.9439 C0            1 RES     
   33603 H4        -484.4452  -347.5501   679.5325 H4            1 RES     
   33604 C5        -502.0640  -347.5665   661.5230 C5            1 RES     
   33605 C5        -500.8702  -347.8228   662.4862 C5            1 RES     
   33606 C5        -499.4708  -347.5421   661.8467 C5            1 RES     
   33607 C5        -498.1895  -347.4654   662.8115 C5            1 RES     
   33608 C5        -497.5580  -348.7751   663.4535 C5            1 RES     
   33609 C5        -496.3944  -348.7362   664.6458 C5            1 RES     
   33610 C5        -494.7840  -348.3971   664.4863 C5            1 RES     
   33611 C5        -493.4643  -348.6930   665.6047 C5            1 RES     
   33612 C5        -492.7860  -347.8141   666.8998 C5            1 RES     
   33613 C5        -491.5406  -348.0000   668.1876 C5            1 RES     
   33614 C5        -489.7872  -347.7825   668.4184 C5            1 RES     
   33615 C5        -489.3504  -348.0069   666.8588 C5            1 RES     
   33616 C5        -489.7713  -349.3283   666.0676 C5            1 RES     
   33617 C5        -489.7722  -349.2184   664.4814 C5            1 RES     
   33618 C5        -490.0092  -350.5651   663.6962 C5            1 RES     
   33619 C5        -489.0789  -351.7182   664.1321 C5            1 RES     
   33620 C5        -487.5716  -351.3685   664.0881 C5            1 RES     
   33621 C5        -486.7336  -352.1176   663.0454 C5            1 RES     
   33622 C5        -487.1655  -351.8955   661.6001 C5            1 RES     
   33623 C5        -488.4496  -347.6885   669.8685 C5            1 RES     
   33624 C0        -487.8692  -348.2214   671.6604 C0            1 RES     
   33625 C5        -488.4251  -349.6672   671.7220 C5            1 RES     
   33626 C5        -489.8890  -349.8996   671.1066 C5            1 RES     
   33627 C5        -491.0228  -349.5872   672.0983 C5            1 RES     
   33628 C5        -490.9819  -348.2218   672.8225 C5            1 RES     
   33629 C5        -490.8650  -346.9780   671.9147 C5            1 RES     
   33630 C5        -491.1673  -345.6548   672.6057 C5            1 RES     
   33631 C5        -490.3194  -345.4464   673.8609 C5            1 RES     
   33632 C5        -490.8232  -344.2444   674.6533 C5            1 RES     
   33633 C5        -490.1856  -344.2524   676.0360 C5            1 RES     
   33634 C5        -490.7812  -343.2153   676.9603 C5            1 RES     
   33635 C5        -490.0151  -351.3229   670.4640 C5            1 RES     
   33636 C5        -491.1381  -351.6788   669.4157 C5            1 RES     
   33637 C5        -492.6206  -351.9153   669.8133 C5            1 RES     
   33638 C5        -492.7651  -352.9590   670.9284 C5            1 RES     
   33639 C5        -494.2148  -353.4537   671.1332 C5            1 RES     
   33640 C5        -494.3822  -354.1992   672.4756 C5            1 RES     
   33641 C5        -493.4612  -355.4179   672.6941 C5            1 RES     
   33642 C5        -493.7265  -356.6217   671.7708 C5            1 RES     
   33643 C5        -495.1282  -357.2486   671.9076 C5            1 RES     
   33644 C5        -495.4283  -357.7672   673.3167 C5            1 RES     
   33645 H6        -502.0941  -346.5073   661.1794 H6            1 RES     
   33646 H6        -502.0393  -348.2226   660.6269 H6            1 RES     
   33647 H6        -503.0338  -347.7539   662.0436 H6            1 RES     
   33648 H6        -501.0240  -347.1365   663.3449 H6            1 RES     
   33649 H6        -500.9297  -348.8707   662.8437 H6            1 RES     
   33650 H6        -499.3171  -348.2355   660.9891 H6            1 RES     
   33651 H6        -499.5814  -346.5239   661.4030 H6            1 RES     
   33652 H6        -498.4705  -346.7646   663.6213 H6            1 RES     
   33653 H6        -497.3881  -347.0007   662.2026 H6            1 RES     
   33654 H6        -497.2557  -349.4474   662.6162 H6            1 RES     
   33655 H6        -498.4483  -349.2716   663.9084 H6            1 RES     
   33656 H6        -496.4125  -349.7956   664.9852 H6            1 RES     
   33657 H6        -496.8219  -348.1206   665.4560 H6            1 RES     
   33658 H6        -494.5595  -349.0755   663.6256 H6            1 RES     
   33659 H6        -494.7016  -347.3775   664.0570 H6            1 RES     
   33660 H6        -492.6414  -348.7758   664.8647 H6            1 RES     
   33661 H6        -493.6708  -349.7369   665.9244 H6            1 RES     
   33662 H6        -492.6148  -346.8109   666.4576 H6            1 RES     
   33663 H6        -493.7139  -347.7336   667.5018 H6            1 RES     
   33664 H6        -491.7983  -348.9778   668.6058 H6            1 RES     
   33665 H6        -491.9358  -347.2623   668.8984 H6            1 RES     
   33666 H6        -489.7862  -346.6732   668.3264 H6            1 RES     
   33667 H6        -488.2908  -347.7492   666.6603 H6            1 RES     
   33668 H6        -489.9253  -347.2343   666.2827 H6            1 RES     
   33669 H6        -490.8022  -349.6484   666.3172 H6            1 RES     
   33670 H6        -489.0767  -350.1195   666.3900 H6            1 RES     
   33671 H6        -488.8268  -348.7718   664.1307 H6            1 RES     
   33672 H6        -490.5535  -348.5067   664.1261 H6            1 RES     
   33673 H6        -489.8863  -350.3938   662.5994 H6            1 RES     
   33674 H6        -491.0581  -350.9152   663.8376 H6            1 RES     
   33675 H6        -489.3580  -351.9467   665.1794 H6            1 RES     
   33676 H6        -489.2888  -352.6626   663.5789 H6            1 RES     
   33677 H6        -487.3957  -350.2858   663.9765 H6            1 RES     
   33678 H6        -487.1441  -351.6427   665.0752 H6            1 RES     
   33679 H6        -486.7567  -353.2051   663.2673 H6            1 RES     
   33680 H6        -485.6845  -351.7632   663.1551 H6            1 RES     
   33681 H6        -487.1526  -350.8164   661.3424 H6            1 RES     
   33682 H6        -486.4530  -352.4291   660.9334 H6            1 RES     
   33683 H6        -488.1792  -352.3111   661.4267 H6            1 RES     
   33684 H6        -488.3976  -346.5829   669.9948 H6            1 RES     
   33685 H6        -487.5220  -347.8405   669.2772 H6            1 RES     
   33686 H6        -487.6809  -350.2288   671.1254 H6            1 RES     
   33687 H6        -488.3908  -350.0362   672.7659 H6            1 RES     
   33688 H6        -490.0734  -349.2707   670.2559 H6            1 RES     
   33689 H6        -491.9783  -349.6461   671.5476 H6            1 RES     
   33690 H6        -491.0283  -350.3686   672.8815 H6            1 RES     
   33691 H6        -491.9274  -348.1530   673.3999 H6            1 RES     
   33692 H6        -490.1339  -348.2349   673.5390 H6            1 RES     
   33693 H6        -489.8495  -346.8705   671.5880 H6            1 RES     
   33694 H6        -491.5315  -347.0705   671.0423 H6            1 RES     
   33695 H6        -490.9874  -344.8151   671.8946 H6            1 RES     
   33696 H6        -492.2419  -345.6687   672.8747 H6            1 RES     
   33697 H6        -490.4517  -346.3286   674.5151 H6            1 RES     
   33698 H6        -489.2376  -345.3488   673.6128 H6            1 RES     
   33699 H6        -490.6087  -343.2953   674.1141 H6            1 RES     
   33700 H6        -491.9200  -344.3524   674.7858 H6            1 RES     
   33701 H6        -489.1157  -344.0346   675.9171 H6            1 RES     
   33702 H6        -490.3410  -345.2511   676.5094 H6            1 RES     
   33703 H6        -490.5851  -342.2008   676.5609 H6            1 RES     
   33704 H6        -490.3081  -343.3201   677.9602 H6            1 RES     
   33705 H6        -491.8732  -343.3870   677.0611 H6            1 RES     
   33706 H6        -489.9548  -352.0998   671.2470 H6            1 RES     
   33707 H6        -489.1011  -351.4104   669.8338 H6            1 RES     
   33708 H6        -491.1094  -350.9720   668.5650 H6            1 RES     
   33709 H6        -490.8193  -352.6476   668.9732 H6            1 RES     
   33710 H6        -493.1389  -350.9763   670.0992 H6            1 RES     
   33711 H6        -493.1388  -352.2987   668.9010 H6            1 RES     
   33712 H6        -492.3937  -352.4810   671.8575 H6            1 RES     
   33713 H6        -492.1405  -353.8457   670.6892 H6            1 RES     
   33714 H6        -494.5269  -354.0967   670.2780 H6            1 RES     
   33715 H6        -494.9075  -352.5847   671.1662 H6            1 RES     
   33716 H6        -495.4431  -354.4984   672.6104 H6            1 RES     
   33717 H6        -494.1520  -353.4672   673.2795 H6            1 RES     
   33718 H6        -493.5647  -355.7485   673.7476 H6            1 RES     
   33719 H6        -492.4033  -355.1041   672.5793 H6            1 RES     
   33720 H6        -493.5688  -356.3188   670.7144 H6            1 RES     
   33721 H6        -492.9738  -357.4057   672.0095 H6            1 RES     
   33722 H6        -495.9088  -356.5188   671.6098 H6            1 RES     
   33723 H6        -495.1871  -358.1096   671.2068 H6            1 RES     
   33724 H6        -494.6681  -358.5159   673.6263 H6            1 RES     
   33725 H6        -495.4497  -356.9382   674.0534 H6            1 RES     
   33726 H6        -496.4274  -358.2515   673.3281 H6            1 RES     
   33727 C0        -479.2104  -346.3299   684.7441 C0            1 RES     
   33728 C0        -481.0314  -346.0100   684.7957 C0            1 RES     
   33729 C0        -481.6865  -347.2001   685.0860 C0            1 RES     
   33730 S1        -483.3911  -347.1942   684.8714 S1            1 RES     
   33731 C0        -483.6957  -345.6510   684.3413 C0            1 RES     
   33732 C0        -482.2535  -345.0690   684.3740 C0            1 RES     
   33733 C0        -480.8112  -348.3641   684.9429 C0            1 RES     
   33734 C0        -479.7569  -347.6464   684.1159 C0            1 RES     
   33735 C0        -479.9698  -347.8284   682.7842 C0            1 RES     
   33736 C0        -480.9671  -348.7438   682.4567 C0            1 RES     
   33737 S1        -481.6927  -349.5546   683.8554 S1            1 RES     
   33738 H2        -482.1286  -344.0700   683.9740 H2            1 RES     
   33739 H2        -479.5657  -347.1802   682.0239 H2            1 RES     
   33740 N3        -487.4954  -346.5209   683.4697 N3            1 RES     
   33741 C0        -486.1867  -346.5426   683.7650 C0            1 RES     
   33742 C0        -485.3159  -345.3657   683.9348 C0            1 RES     
   33743 C0        -486.1348  -344.1560   683.7102 C0            1 RES     
   33744 N3        -485.6733  -342.8668   683.7733 N3            1 RES     
   33745 S1        -487.0289  -341.9466   683.4722 S1            1 RES     
   33746 N3        -488.2208  -343.0641   683.2266 N3            1 RES     
   33747 C0        -487.5634  -344.2196   683.3931 C0            1 RES     
   33748 C0        -488.2471  -345.4040   683.2672 C0            1 RES     
   33749 H4        -485.7957  -347.5309   683.8635 H4            1 RES     
   33750 C5        -462.9193  -352.9792   692.9051 C5            1 RES     
   33751 C5        -464.2706  -352.3535   692.4568 C5            1 RES     
   33752 C5        -464.1359  -351.3404   691.2728 C5            1 RES     
   33753 C5        -465.4700  -350.8658   690.5156 C5            1 RES     
   33754 C5        -466.4826  -349.8415   691.1877 C5            1 RES     
   33755 C5        -467.9904  -349.5066   690.5622 C5            1 RES     
   33756 C5        -468.3648  -348.5618   689.2581 C5            1 RES     
   33757 C5        -469.9100  -347.8817   688.7786 C5            1 RES     
   33758 C5        -471.2148  -348.4468   687.8361 C5            1 RES     
   33759 C5        -472.8734  -347.9489   687.3411 C5            1 RES     
   33760 C5        -473.6770  -346.9721   686.0861 C5            1 RES     
   33761 C5        -472.4267  -345.9616   685.7874 C5            1 RES     
   33762 C5        -471.7447  -345.1252   686.9640 C5            1 RES     
   33763 C5        -470.2643  -344.6154   686.6869 C5            1 RES     
   33764 C5        -469.6569  -343.6395   687.7662 C5            1 RES     
   33765 C5        -470.5620  -342.4345   688.1035 C5            1 RES     
   33766 C5        -471.0048  -341.6090   686.8712 C5            1 RES     
   33767 C5        -470.4525  -340.1818   686.7791 C5            1 RES     
   33768 C5        -468.9322  -340.0889   686.7087 C5            1 RES     
   33769 C5        -475.4763  -346.6474   685.3392 C5            1 RES     
   33770 C0        -477.4156  -346.5691   685.5937 C0            1 RES     
   33771 C5        -477.4909  -346.0583   687.0554 C5            1 RES     
   33772 C5        -476.4376  -346.6871   688.0902 C5            1 RES     
   33773 C5        -476.9029  -348.0220   688.6968 C5            1 RES     
   33774 C5        -477.3817  -349.1215   687.7208 C5            1 RES     
   33775 C5        -476.3997  -349.4954   686.5891 C5            1 RES     
   33776 C5        -476.7320  -350.7906   685.8599 C5            1 RES     
   33777 C5        -478.1604  -350.8016   685.3144 C5            1 RES     
   33778 C5        -478.5329  -352.1950   684.8183 C5            1 RES     
   33779 C5        -480.0365  -352.2596   684.5871 C5            1 RES     
   33780 C5        -480.5227  -353.6599   684.2911 C5            1 RES     
   33781 C5        -476.0126  -345.6391   689.1746 C5            1 RES     
   33782 C5        -474.6994  -345.7986   690.0330 C5            1 RES     
   33783 C5        -474.5747  -346.8079   691.2067 C5            1 RES     
   33784 C5        -475.7082  -346.6550   692.2291 C5            1 RES     
   33785 C5        -475.4559  -347.4083   693.5547 C5            1 RES     
   33786 C5        -476.7465  -347.5425   694.3928 C5            1 RES     
   33787 C5        -477.4575  -346.2229   694.7593 C5            1 RES     
   33788 C5        -476.6912  -345.3062   695.7311 C5            1 RES     
   33789 C5        -476.4129  -345.9184   697.1183 C5            1 RES     
   33790 C5        -477.6840  -346.3110   697.8766 C5            1 RES     
   33791 H6        -462.4332  -353.5433   692.0766 H6            1 RES     
   33792 H6        -462.1993  -352.2202   693.2787 H6            1 RES     
   33793 H6        -463.0829  -353.7141   693.7296 H6            1 RES     
   33794 H6        -464.9057  -353.2061   692.1379 H6            1 RES     
   33795 H6        -464.7359  -351.8628   693.3355 H6            1 RES     
   33796 H6        -463.5028  -350.4838   691.5973 H6            1 RES     
   33797 H6        -463.5350  -351.8970   690.5145 H6            1 RES     
   33798 H6        -466.0126  -351.7967   690.2609 H6            1 RES     
   33799 H6        -465.1235  -350.3890   689.5768 H6            1 RES     
   33800 H6        -465.9179  -348.9040   691.4040 H6            1 RES     
   33801 H6        -466.6601  -350.3027   692.1887 H6            1 RES     
   33802 H6        -468.4554  -348.9738   691.4211 H6            1 RES     
   33803 H6        -468.4940  -350.4839   690.4657 H6            1 RES     
   33804 H6        -467.7519  -347.6651   689.5256 H6            1 RES     
   33805 H6        -467.8457  -348.9927   688.3774 H6            1 RES     
   33806 H6        -469.5321  -346.9963   688.2264 H6            1 RES     
   33807 H6        -470.2876  -347.4802   689.7434 H6            1 RES     
   33808 H6        -470.7177  -348.8018   686.9098 H6            1 RES     
   33809 H6        -471.4284  -349.3520   688.4401 H6            1 RES     
   33810 H6        -473.3138  -347.6602   688.3003 H6            1 RES     
   33811 H6        -473.2786  -348.9449   687.1189 H6            1 RES     
   33812 H6        -473.4266  -347.6386   685.2304 H6            1 RES     
   33813 H6        -472.5817  -345.3275   684.8915 H6            1 RES     
   33814 H6        -471.5754  -346.6320   685.4958 H6            1 RES     
   33815 H6        -471.6564  -345.7189   687.8953 H6            1 RES     
   33816 H6        -472.4072  -344.2685   687.1624 H6            1 RES     
   33817 H6        -470.2100  -344.1231   685.7016 H6            1 RES     
   33818 H6        -469.5524  -345.4692   686.6002 H6            1 RES     
   33819 H6        -468.6628  -343.2627   687.4234 H6            1 RES     
   33820 H6        -469.4668  -344.1870   688.7185 H6            1 RES     
   33821 H6        -471.4633  -342.8638   688.5834 H6            1 RES     
   33822 H6        -470.1181  -341.7791   688.8880 H6            1 RES     
   33823 H6        -470.8026  -342.1320   685.9218 H6            1 RES     
   33824 H6        -472.1085  -341.5045   686.9280 H6            1 RES     
   33825 H6        -470.8116  -339.5916   687.6481 H6            1 RES     
   33826 H6        -470.8736  -339.7287   685.8541 H6            1 RES     
   33827 H6        -468.5377  -340.6676   685.8481 H6            1 RES     
   33828 H6        -468.6501  -339.0211   686.5787 H6            1 RES     
   33829 H6        -468.4740  -340.4559   687.6498 H6            1 RES     
   33830 H6        -475.4461  -347.3565   684.4806 H6            1 RES     
   33831 H6        -475.2831  -345.7011   684.7910 H6            1 RES     
   33832 H6        -477.2889  -344.9767   686.9351 H6            1 RES     
   33833 H6        -478.5215  -346.1833   687.4420 H6            1 RES     
   33834 H6        -475.4931  -346.8994   687.6253 H6            1 RES     
   33835 H6        -476.0641  -348.4366   689.2834 H6            1 RES     
   33836 H6        -477.7405  -347.8185   689.3905 H6            1 RES     
   33837 H6        -477.5681  -350.0222   688.3419 H6            1 RES     
   33838 H6        -478.3461  -348.7955   687.2778 H6            1 RES     
   33839 H6        -476.4431  -348.7498   685.8199 H6            1 RES     
   33840 H6        -475.3717  -349.5736   686.9777 H6            1 RES     
   33841 H6        -476.0145  -350.9381   685.0195 H6            1 RES     
   33842 H6        -476.6005  -351.6147   686.5886 H6            1 RES     
   33843 H6        -478.8489  -350.5739   686.1499 H6            1 RES     
   33844 H6        -478.3014  -350.0332   684.5201 H6            1 RES     
   33845 H6        -477.9698  -352.4509   683.8936 H6            1 RES     
   33846 H6        -478.2815  -352.9249   685.6159 H6            1 RES     
   33847 H6        -480.2745  -351.6225   683.7248 H6            1 RES     
   33848 H6        -480.5673  -351.9080   685.5037 H6            1 RES     
   33849 H6        -480.0722  -354.0207   683.3455 H6            1 RES     
   33850 H6        -481.6291  -353.6359   684.1915 H6            1 RES     
   33851 H6        -480.2533  -354.3347   685.1302 H6            1 RES     
   33852 H6        -476.8726  -345.3934   689.8229 H6            1 RES     
   33853 H6        -475.7690  -344.7287   688.5812 H6            1 RES     
   33854 H6        -473.8190  -345.9146   689.3729 H6            1 RES     
   33855 H6        -474.5492  -344.8069   690.5125 H6            1 RES     
   33856 H6        -474.5140  -347.8599   690.8579 H6            1 RES     
   33857 H6        -473.6061  -346.5864   691.7170 H6            1 RES     
   33858 H6        -476.6261  -347.0429   691.7424 H6            1 RES     
   33859 H6        -475.8421  -345.5805   692.4761 H6            1 RES     
   33860 H6        -474.6520  -346.9027   694.1381 H6            1 RES     
   33861 H6        -475.1103  -348.4429   693.3394 H6            1 RES     
   33862 H6        -476.5385  -348.1279   695.3132 H6            1 RES     
   33863 H6        -477.4606  -348.1416   693.7876 H6            1 RES     
   33864 H6        -478.4422  -346.4700   695.2057 H6            1 RES     
   33865 H6        -477.6806  -345.6562   693.8321 H6            1 RES     
   33866 H6        -475.7272  -345.0036   695.2709 H6            1 RES     
   33867 H6        -477.2962  -344.3837   695.8767 H6            1 RES     
   33868 H6        -475.7517  -346.8040   697.0245 H6            1 RES     
   33869 H6        -475.8741  -345.1584   697.7250 H6            1 RES     
   33870 H6        -478.3517  -345.4316   697.9992 H6            1 RES     
   33871 H6        -478.2322  -347.1187   697.3497 H6            1 RES     
   33872 H6        -477.4118  -346.6921   698.8833 H6            1 RES     
   33873 C0        -492.2824  -346.6290   680.2356 C0            1 RES     
   33874 C0        -491.6351  -348.0948   681.1596 C0            1 RES     
   33875 C0        -491.8480  -347.8968   682.5180 C0            1 RES     
   33876 S1        -491.0433  -348.9872   683.5740 S1            1 RES     
   33877 C0        -490.2152  -349.9765   682.5296 C0            1 RES     
   33878 C0        -490.6710  -349.3703   681.1715 C0            1 RES     
   33879 C0        -492.2010  -346.5108   682.8279 C0            1 RES     
   33880 C0        -491.7053  -345.9413   681.5086 C0            1 RES     
   33881 C0        -490.4281  -345.4849   681.6197 C0            1 RES     
   33882 C0        -489.9083  -345.4685   682.9117 C0            1 RES     
   33883 S1        -491.0622  -345.9636   684.1623 S1            1 RES     
   33884 H2        -490.1970  -349.7699   680.2830 H2            1 RES     
   33885 H2        -489.7733  -345.3402   680.7761 H2            1 RES     
   33886 N3        -488.1906  -351.7055   685.5071 N3            1 RES     
   33887 C0        -488.9315  -350.9052   684.7254 C0            1 RES     
   33888 C0        -489.2217  -351.1156   683.2958 C0            1 RES     
   33889 C0        -488.5427  -352.3574   682.8703 C0            1 RES     
   33890 N3        -488.5723  -352.8795   681.6032 N3            1 RES     
   33891 S1        -487.6751  -354.2774   681.7306 S1            1 RES     
   33892 N3        -487.1919  -354.2963   683.3105 N3            1 RES     
   33893 C0        -487.7519  -353.1779   683.7907 C0            1 RES     
   33894 C0        -487.5697  -352.8509   685.1120 C0            1 RES     
   33895 H4        -489.3090  -350.0496   685.2399 H4            1 RES     
   33896 C5        -506.5960  -334.2765   675.9054 C5            1 RES     
   33897 C5        -505.6086  -335.4315   676.2361 C5            1 RES     
   33898 C5        -504.4127  -335.5467   675.2349 C5            1 RES     
   33899 C5        -503.1689  -336.4815   675.6317 C5            1 RES     
   33900 C5        -503.2761  -338.0665   675.5804 C5            1 RES     
   33901 C5        -502.1131  -339.0800   676.2105 C5            1 RES     
   33902 C5        -500.6355  -339.4561   675.5710 C5            1 RES     
   33903 C5        -499.5423  -340.7666   675.9802 C5            1 RES     
   33904 C5        -498.2933  -340.9569   677.1265 C5            1 RES     
   33905 C5        -497.1727  -342.2242   677.7447 C5            1 RES     
   33906 C5        -495.5832  -342.9316   677.3605 C5            1 RES     
   33907 C5        -495.6010  -342.6063   675.7582 C5            1 RES     
   33908 C5        -496.8040  -343.0986   674.8312 C5            1 RES     
   33909 C5        -496.9982  -342.3075   673.4656 C5            1 RES     
   33910 C5        -498.0641  -342.9034   672.4682 C5            1 RES     
   33911 C5        -497.8736  -344.4067   672.1700 C5            1 RES     
   33912 C5        -496.4558  -344.7804   671.6736 C5            1 RES     
   33913 C5        -496.3538  -345.2708   670.2246 C5            1 RES     
   33914 C5        -496.8153  -344.2646   669.1761 C5            1 RES     
   33915 C5        -494.2061  -344.0936   678.1693 C5            1 RES     
   33916 C0        -493.7400  -345.5617   679.3773 C0            1 RES     
   33917 C5        -494.9856  -346.4704   679.2156 C5            1 RES     
   33918 C5        -496.4086  -345.7314   679.1489 C5            1 RES     
   33919 C5        -497.0025  -345.4279   680.5352 C5            1 RES     
   33920 C5        -496.0961  -344.7038   681.5573 C5            1 RES     
   33921 C5        -495.4568  -343.3826   681.0772 C5            1 RES     
   33922 C5        -494.8595  -342.5249   682.1850 C5            1 RES     
   33923 C5        -493.8501  -343.2948   683.0373 C5            1 RES     
   33924 C5        -493.4682  -342.4878   684.2739 C5            1 RES     
   33925 C5        -492.7301  -343.3901   685.2534 C5            1 RES     
   33926 C5        -492.4935  -342.7297   686.5923 C5            1 RES     
   33927 C5        -497.4036  -346.4995   678.2136 C5            1 RES     
   33928 C5        -498.6862  -345.8149   677.6027 C5            1 RES     
   33929 C5        -499.9643  -345.5212   678.4346 C5            1 RES     
   33930 C5        -500.4820  -346.7663   679.1660 C5            1 RES     
   33931 C5        -501.9074  -346.6026   679.7403 C5            1 RES     
   33932 C5        -502.2420  -347.7064   680.7678 C5            1 RES     
   33933 C5        -502.1304  -349.1601   680.2623 C5            1 RES     
   33934 C5        -503.1624  -349.5707   679.1954 C5            1 RES     
   33935 C5        -504.6327  -349.5010   679.6533 C5            1 RES     
   33936 C5        -504.9393  -350.3990   680.8551 C5            1 RES     
   33937 H6        -506.0887  -333.2849   675.9232 H6            1 RES     
   33938 H6        -507.0832  -334.4004   674.9148 H6            1 RES     
   33939 H6        -507.4085  -334.2256   676.6696 H6            1 RES     
   33940 H6        -505.2161  -335.2104   677.2506 H6            1 RES     
   33941 H6        -506.1807  -336.3809   676.2671 H6            1 RES     
   33942 H6        -504.8090  -335.7737   674.2194 H6            1 RES     
   33943 H6        -504.0097  -334.5070   675.1823 H6            1 RES     
   33944 H6        -502.8802  -336.1712   676.6546 H6            1 RES     
   33945 H6        -502.3546  -336.2027   674.9333 H6            1 RES     
   33946 H6        -503.5362  -338.3518   674.5338 H6            1 RES     
   33947 H6        -504.2056  -338.2625   676.1669 H6            1 RES     
   33948 H6        -502.6606  -340.0486   676.2068 H6            1 RES     
   33949 H6        -501.9911  -338.7715   677.2631 H6            1 RES     
   33950 H6        -500.9661  -339.7014   674.5309 H6            1 RES     
   33951 H6        -500.0718  -338.5071   675.4600 H6            1 RES     
   33952 H6        -499.0347  -340.8658   674.9982 H6            1 RES     
   33953 H6        -500.2383  -341.6311   676.0336 H6            1 RES     
   33954 H6        -497.6684  -340.0542   676.9663 H6            1 RES     
   33955 H6        -498.9100  -340.7519   678.0251 H6            1 RES     
   33956 H6        -497.8582  -343.0582   677.9232 H6            1 RES     
   33957 H6        -496.9726  -341.7907   678.7334 H6            1 RES     
   33958 H6        -494.9823  -342.0266   677.6031 H6            1 RES     
   33959 H6        -494.6245  -342.7852   675.2651 H6            1 RES     
   33960 H6        -495.7346  -341.4942   675.6896 H6            1 RES     
   33961 H6        -497.7834  -343.0037   675.3404 H6            1 RES     
   33962 H6        -496.6236  -344.1653   674.6262 H6            1 RES     
   33963 H6        -496.0348  -342.2212   672.9360 H6            1 RES     
   33964 H6        -497.2988  -341.2499   673.6506 H6            1 RES     
   33965 H6        -498.0448  -342.3367   671.5059 H6            1 RES     
   33966 H6        -499.0922  -342.7759   672.8799 H6            1 RES     
   33967 H6        -498.0602  -344.9270   673.1299 H6            1 RES     
   33968 H6        -498.6572  -344.8042   671.4844 H6            1 RES     
   33969 H6        -495.7298  -343.9646   671.8263 H6            1 RES     
   33970 H6        -496.1003  -345.6216   672.3047 H6            1 RES     
   33971 H6        -496.9399  -346.2068   670.1110 H6            1 RES     
   33972 H6        -495.2829  -345.5067   670.0353 H6            1 RES     
   33973 H6        -496.2479  -343.3147   669.2595 H6            1 RES     
   33974 H6        -496.6360  -344.6988   668.1681 H6            1 RES     
   33975 H6        -497.9013  -344.0637   669.2783 H6            1 RES     
   33976 H6        -493.5305  -343.3111   678.5843 H6            1 RES     
   33977 H6        -493.6275  -344.3590   677.2593 H6            1 RES     
   33978 H6        -494.7847  -346.9716   678.2494 H6            1 RES     
   33979 H6        -494.9946  -347.2371   680.0151 H6            1 RES     
   33980 H6        -496.3471  -344.7817   678.6514 H6            1 RES     
   33981 H6        -497.9038  -344.8071   680.3876 H6            1 RES     
   33982 H6        -497.3145  -346.3826   680.9993 H6            1 RES     
   33983 H6        -496.7375  -344.4892   682.4373 H6            1 RES     
   33984 H6        -495.2959  -345.4070   681.8700 H6            1 RES     
   33985 H6        -494.6202  -343.6020   680.4436 H6            1 RES     
   33986 H6        -496.1924  -342.7725   680.5288 H6            1 RES     
   33987 H6        -494.3611  -341.6340   681.7369 H6            1 RES     
   33988 H6        -495.7017  -342.1807   682.8171 H6            1 RES     
   33989 H6        -494.3422  -344.2148   683.4053 H6            1 RES     
   33990 H6        -492.9523  -343.5863   682.4455 H6            1 RES     
   33991 H6        -492.8534  -341.6031   683.9964 H6            1 RES     
   33992 H6        -494.4026  -342.1464   684.7664 H6            1 RES     
   33993 H6        -491.7547  -343.6401   684.8150 H6            1 RES     
   33994 H6        -493.3347  -344.3102   685.4366 H6            1 RES     
   33995 H6        -491.8351  -341.8481   686.4638 H6            1 RES     
   33996 H6        -492.0048  -343.4647   687.2672 H6            1 RES     
   33997 H6        -493.4644  -342.4259   687.0364 H6            1 RES     
   33998 H6        -497.6595  -347.4795   678.6543 H6            1 RES     
   33999 H6        -496.8067  -346.6912   677.2932 H6            1 RES     
   34000 H6        -498.4074  -344.8986   677.0489 H6            1 RES     
   34001 H6        -499.0339  -346.5141   676.8113 H6            1 RES     
   34002 H6        -499.8213  -344.6875   679.1533 H6            1 RES     
   34003 H6        -500.7464  -345.1856   677.7109 H6            1 RES     
   34004 H6        -499.7647  -346.9708   679.9867 H6            1 RES     
   34005 H6        -500.5018  -347.6270   678.4643 H6            1 RES     
   34006 H6        -502.6559  -346.5859   678.9146 H6            1 RES     
   34007 H6        -501.9862  -345.6341   680.2806 H6            1 RES     
   34008 H6        -503.2528  -347.5309   681.1931 H6            1 RES     
   34009 H6        -501.5194  -347.5948   681.6047 H6            1 RES     
   34010 H6        -502.2292  -349.8403   681.1326 H6            1 RES     
   34011 H6        -501.1108  -349.3316   679.8600 H6            1 RES     
   34012 H6        -503.0350  -348.9348   678.2942 H6            1 RES     
   34013 H6        -502.9439  -350.6203   678.8972 H6            1 RES     
   34014 H6        -504.9135  -348.4552   679.8939 H6            1 RES     
   34015 H6        -505.2704  -349.8345   678.8059 H6            1 RES     
   34016 H6        -504.6837  -351.4558   680.6269 H6            1 RES     
   34017 H6        -504.3791  -350.0708   681.7545 H6            1 RES     
   34018 H6        -506.0219  -350.3402   681.0946 H6            1 RES     
   34019 C0        -483.5214  -353.7269   688.2456 C0            1 RES     
   34020 C0        -484.8231  -352.6962   689.0608 C0            1 RES     
   34021 C0        -485.9712  -353.4635   689.2122 C0            1 RES     
   34022 S1        -487.3946  -352.6107   689.6578 S1            1 RES     
   34023 C0        -486.8731  -351.0378   689.7545 C0            1 RES     
   34024 C0        -485.3673  -351.2357   689.4178 C0            1 RES     
   34025 C0        -485.9246  -354.6936   688.4209 C0            1 RES     
   34026 C0        -484.7983  -354.2323   687.5103 C0            1 RES     
   34027 C0        -485.2866  -353.6883   686.3625 C0            1 RES     
   34028 C0        -486.6610  -353.8157   686.1767 C0            1 RES     
   34029 S1        -487.4787  -354.7488   687.4420 S1            1 RES     
   34030 H2        -484.7757  -350.3345   689.3108 H2            1 RES     
   34031 H2        -484.7192  -353.0236   685.7317 H2            1 RES     
   34032 N3        -490.5982  -349.6502   690.1432 N3            1 RES     
   34033 C0        -489.4941  -350.3764   689.9111 C0            1 RES     
   34034 C0        -488.1034  -349.9192   690.0813 C0            1 RES     
   34035 C0        -488.1376  -348.5149   690.5408 C0            1 RES     
   34036 N3        -487.0360  -347.7421   690.8018 N3            1 RES     
   34037 S1        -487.6814  -346.2923   691.3086 S1            1 RES     
   34038 N3        -489.3137  -346.5277   691.2083 N3            1 RES     
   34039 C0        -489.3905  -347.7926   690.7734 C0            1 RES     
   34040 C0        -490.6256  -348.3577   690.5703 C0            1 RES     
   34041 H4        -489.7068  -351.3631   689.5640 H4            1 RES     
   34042 C5        -472.5929  -369.7314   687.4458 C5            1 RES     
   34043 C5        -473.4216  -368.4476   687.7353 C5            1 RES     
   34044 C5        -472.9400  -367.1914   686.9378 C5            1 RES     
   34045 C5        -473.8879  -365.8957   686.9045 C5            1 RES     
   34046 C5        -474.0393  -364.9489   688.1722 C5            1 RES     
   34047 C5        -475.1856  -363.7440   688.2787 C5            1 RES     
   34048 C5        -475.1768  -362.2626   687.5444 C5            1 RES     
   34049 C5        -476.1387  -360.8370   687.8943 C5            1 RES     
   34050 C5        -477.6687  -360.2822   687.3830 C5            1 RES     
   34051 C5        -478.8267  -358.9417   687.7082 C5            1 RES     
   34052 C5        -479.1429  -357.2677   687.1859 C5            1 RES     
   34053 C5        -477.6096  -356.8996   686.7536 C5            1 RES     
   34054 C5        -476.4002  -357.0719   687.7817 C5            1 RES     
   34055 C5        -474.9530  -357.2052   687.1367 C5            1 RES     
   34056 C5        -473.7429  -357.1927   688.1475 C5            1 RES     
   34057 C5        -473.7601  -356.0037   689.1329 C5            1 RES     
   34058 C5        -473.8619  -354.6171   688.4524 C5            1 RES     
   34059 C5        -472.6345  -353.7078   688.5832 C5            1 RES     
   34060 C5        -471.3526  -354.2755   687.9837 C5            1 RES     
   34061 C5        -480.5523  -355.8880   687.2907 C5            1 RES     
   34062 C0        -482.0519  -355.0836   688.2580 C0            1 RES     
   34063 C5        -481.5959  -355.3019   689.7235 C5            1 RES     
   34064 C5        -480.9182  -356.7170   690.0606 C5            1 RES     
   34065 C5        -481.9409  -357.8215   690.3779 C5            1 RES     
   34066 C5        -483.0978  -358.0332   689.3744 C5            1 RES     
   34067 C5        -482.6846  -358.2553   687.9031 C5            1 RES     
   34068 C5        -483.7909  -358.7939   687.0054 C5            1 RES     
   34069 C5        -485.0511  -357.9292   687.0518 C5            1 RES     
   34070 C5        -486.2072  -358.6301   686.3458 C5            1 RES     
   34071 C5        -487.5081  -357.9136   686.6815 C5            1 RES     
   34072 C5        -488.7289  -358.6587   686.1921 C5            1 RES     
   34073 C5        -479.8163  -356.5700   691.1647 C5            1 RES     
   34074 C5        -478.6945  -357.6558   691.3869 C5            1 RES     
   34075 C5        -478.9639  -359.0191   692.0802 C5            1 RES     
   34076 C5        -479.6410  -358.8538   693.4468 C5            1 RES     
   34077 C5        -479.6398  -360.1415   694.3014 C5            1 RES     
   34078 C5        -480.6339  -360.0485   695.4800 C5            1 RES     
   34079 C5        -480.4243  -358.8690   696.4526 C5            1 RES     
   34080 C5        -479.1346  -358.9249   697.2924 C5            1 RES     
   34081 C5        -479.0241  -360.1415   698.2328 C5            1 RES     
   34082 C5        -480.1583  -360.2231   699.2583 C5            1 RES     
   34083 H6        -472.6415  -370.0175   686.3703 H6            1 RES     
   34084 H6        -471.5243  -369.6239   687.7294 H6            1 RES     
   34085 H6        -473.0017  -370.5982   688.0185 H6            1 RES     
   34086 H6        -474.4641  -368.6899   687.4409 H6            1 RES     
   34087 H6        -473.3887  -368.2502   688.8259 H6            1 RES     
   34088 H6        -471.8961  -366.9476   687.2390 H6            1 RES     
   34089 H6        -472.8793  -367.5535   685.8837 H6            1 RES     
   34090 H6        -474.8880  -366.2683   686.6095 H6            1 RES     
   34091 H6        -473.4912  -365.2599   686.0878 H6            1 RES     
   34092 H6        -473.0238  -364.5638   688.4269 H6            1 RES     
   34093 H6        -474.2795  -365.6748   688.9856 H6            1 RES     
   34094 H6        -475.1323  -363.5050   689.3640 H6            1 RES     
   34095 H6        -476.1540  -364.2403   688.0951 H6            1 RES     
   34096 H6        -474.1362  -361.9533   687.8145 H6            1 RES     
   34097 H6        -475.1329  -362.4363   686.4496 H6            1 RES     
   34098 H6        -475.4279  -360.0684   687.5260 H6            1 RES     
   34099 H6        -476.0699  -360.7861   689.0021 H6            1 RES     
   34100 H6        -477.6081  -360.3668   686.2784 H6            1 RES     
   34101 H6        -478.2481  -361.1618   687.7302 H6            1 RES     
   34102 H6        -478.8726  -358.9485   688.8014 H6            1 RES     
   34103 H6        -479.7454  -359.4402   687.3719 H6            1 RES     
   34104 H6        -479.4451  -357.5175   686.1441 H6            1 RES     
   34105 H6        -477.5284  -355.9388   686.2068 H6            1 RES     
   34106 H6        -477.3326  -357.6685   685.9846 H6            1 RES     
   34107 H6        -476.5079  -357.9876   688.3962 H6            1 RES     
   34108 H6        -476.4347  -356.1999   688.4529 H6            1 RES     
   34109 H6        -474.7938  -356.4076   686.3919 H6            1 RES     
   34110 H6        -474.8588  -358.1465   686.5465 H6            1 RES     
   34111 H6        -472.7772  -357.1857   687.5863 H6            1 RES     
   34112 H6        -473.7384  -358.1265   688.7562 H6            1 RES     
   34113 H6        -474.6572  -356.1535   689.7651 H6            1 RES     
   34114 H6        -472.9085  -356.0376   689.8510 H6            1 RES     
   34115 H6        -474.1388  -354.6920   687.3878 H6            1 RES     
   34116 H6        -474.6962  -354.0734   688.9429 H6            1 RES     
   34117 H6        -472.4612  -353.4755   689.6549 H6            1 RES     
   34118 H6        -472.8756  -352.7575   688.0567 H6            1 RES     
   34119 H6        -471.4892  -354.5183   686.9097 H6            1 RES     
   34120 H6        -470.5511  -353.5101   688.0764 H6            1 RES     
   34121 H6        -471.0309  -355.1822   688.5358 H6            1 RES     
   34122 H6        -481.0583  -356.0724   686.3155 H6            1 RES     
   34123 H6        -479.9579  -354.9922   687.0123 H6            1 RES     
   34124 H6        -480.8506  -354.4947   689.8584 H6            1 RES     
   34125 H6        -482.4449  -355.1160   690.4103 H6            1 RES     
   34126 H6        -480.3391  -357.0931   689.2381 H6            1 RES     
   34127 H6        -481.3915  -358.7758   690.4623 H6            1 RES     
   34128 H6        -482.4009  -357.6013   691.3598 H6            1 RES     
   34129 H6        -483.6498  -358.9289   689.7278 H6            1 RES     
   34130 H6        -483.7759  -357.1563   689.4373 H6            1 RES     
   34131 H6        -482.4301  -357.3132   687.4591 H6            1 RES     
   34132 H6        -481.8260  -358.9430   687.8409 H6            1 RES     
   34133 H6        -483.4214  -358.8523   685.9552 H6            1 RES     
   34134 H6        -484.0234  -359.8181   687.3579 H6            1 RES     
   34135 H6        -485.3532  -357.8189   688.1103 H6            1 RES     
   34136 H6        -484.8677  -356.9150   686.6287 H6            1 RES     
   34137 H6        -486.0374  -358.6672   685.2470 H6            1 RES     
   34138 H6        -486.2786  -359.6645   686.7421 H6            1 RES     
   34139 H6        -487.4877  -356.9287   686.1960 H6            1 RES     
   34140 H6        -487.5998  -357.8126   687.7892 H6            1 RES     
   34141 H6        -488.7126  -358.7186   685.0860 H6            1 RES     
   34142 H6        -489.6352  -358.1070   686.5222 H6            1 RES     
   34143 H6        -488.7483  -359.6765   686.6344 H6            1 RES     
   34144 H6        -480.2785  -356.2868   692.1271 H6            1 RES     
   34145 H6        -479.2079  -355.7043   690.8173 H6            1 RES     
   34146 H6        -478.1456  -357.8416   690.4444 H6            1 RES     
   34147 H6        -477.9452  -357.1624   692.0435 H6            1 RES     
   34148 H6        -479.5534  -359.7108   691.4428 H6            1 RES     
   34149 H6        -477.9681  -359.5011   692.2350 H6            1 RES     
   34150 H6        -480.6836  -358.5343   693.2454 H6            1 RES     
   34151 H6        -479.1151  -358.0670   694.0282 H6            1 RES     
   34152 H6        -478.6094  -360.3618   694.6647 H6            1 RES     
   34153 H6        -479.9656  -361.0047   693.6810 H6            1 RES     
   34154 H6        -480.6409  -361.0058   696.0429 H6            1 RES     
   34155 H6        -481.6462  -359.9311   695.0368 H6            1 RES     
   34156 H6        -481.2940  -358.8250   697.1395 H6            1 RES     
   34157 H6        -480.4411  -357.9166   695.8839 H6            1 RES     
   34158 H6        -478.2533  -358.9102   696.6172 H6            1 RES     
   34159 H6        -479.0939  -358.0035   697.9149 H6            1 RES     
   34160 H6        -478.9900  -361.0821   697.6458 H6            1 RES     
   34161 H6        -478.0655  -360.0568   698.7894 H6            1 RES     
   34162 H6        -480.1964  -359.2973   699.8713 H6            1 RES     
   34163 H6        -481.1382  -360.3763   698.7616 H6            1 RES     
   34164 H6        -479.9857  -361.0878   699.9331 H6            1 RES     
   34165 C0        -495.0866  -346.1828   689.0390 C0            1 RES     
   34166 C0        -495.2221  -348.0218   689.1847 C0            1 RES     
   34167 C0        -495.0684  -348.3772   690.5187 C0            1 RES     
   34168 S1        -494.8463  -350.0518   690.8321 S1            1 RES     
   34169 C0        -494.8858  -350.7243   689.3151 C0            1 RES     
   34170 C0        -495.1398  -349.4470   688.4644 C0            1 RES     
   34171 C0        -494.5388  -347.2788   691.3279 C0            1 RES     
   34172 C0        -494.0299  -346.4675   690.1475 C0            1 RES     
   34173 C0        -492.7159  -346.7253   689.9045 C0            1 RES     
   34174 C0        -492.0751  -347.5164   690.8550 C0            1 RES     
   34175 S1        -493.0914  -347.9484   692.2409 S1            1 RES     
   34176 H2        -495.1167  -349.5728   687.3886 H2            1 RES     
   34177 H2        -492.2362  -346.5267   688.9601 H2            1 RES     
   34178 N3        -493.7131  -354.2893   690.6822 N3            1 RES     
   34179 C0        -494.0000  -352.9910   690.5022 C0            1 RES     
   34180 C0        -494.5829  -352.3914   689.2886 C0            1 RES     
   34181 C0        -494.7849  -353.4700   688.2986 C0            1 RES     
   34182 N3        -495.3017  -353.3006   687.0403 N3            1 RES     
   34183 S1        -495.3233  -354.8430   686.4110 S1            1 RES     
   34184 N3        -494.6858  -355.7733   687.6185 N3            1 RES     
   34185 C0        -494.4462  -354.8678   688.5764 C0            1 RES     
   34186 C0        -493.9043  -355.2807   689.7688 C0            1 RES     
   34187 H4        -493.7515  -352.3861   691.3458 H4            1 RES     
   34188 C5        -500.6244  -328.3095   694.1470 C5            1 RES     
   34189 C5        -500.4052  -329.7928   693.7343 C5            1 RES     
   34190 C5        -499.6528  -329.9657   692.3741 C5            1 RES     
   34191 C5        -499.0915  -331.4200   691.9888 C5            1 RES     
   34192 C5        -500.0659  -332.5851   691.5204 C5            1 RES     
   34193 C5        -499.5767  -334.1687   691.3477 C5            1 RES     
   34194 C5        -498.6809  -334.8301   690.1254 C5            1 RES     
   34195 C5        -498.4488  -336.5162   689.6972 C5            1 RES     
   34196 C5        -497.3504  -337.7256   690.1881 C5            1 RES     
   34197 C5        -497.0385  -339.4829   689.9466 C5            1 RES     
   34198 C5        -496.1941  -340.5656   688.8110 C5            1 RES     
   34199 C5        -496.2852  -339.5920   687.5005 C5            1 RES     
   34200 C5        -497.6893  -339.0324   686.9864 C5            1 RES     
   34201 C5        -497.6284  -337.7231   686.0861 C5            1 RES     
   34202 C5        -498.9893  -337.2735   685.4288 C5            1 RES     
   34203 C5        -499.7147  -338.3967   684.6560 C5            1 RES     
   34204 C5        -498.8435  -339.0935   683.5829 C5            1 RES     
   34205 C5        -499.2644  -338.8767   682.1247 C5            1 RES     
   34206 C5        -499.2517  -337.4227   681.6659 C5            1 RES     
   34207 C5        -495.5837  -342.4389   688.6730 C5            1 RES     
   34208 C0        -495.8231  -344.3258   689.1356 C0            1 RES     
   34209 C5        -497.3699  -344.4120   689.1902 C5            1 RES     
   34210 C5        -498.1333  -343.1780   689.8757 C5            1 RES     
   34211 C5        -498.2277  -343.2953   691.4067 C5            1 RES     
   34212 C5        -496.9222  -343.5855   692.1825 C5            1 RES     
   34213 C5        -495.7447  -342.6247   691.9079 C5            1 RES     
   34214 C5        -494.6038  -342.7125   692.9131 C5            1 RES     
   34215 C5        -494.0695  -344.1372   693.0645 C5            1 RES     
   34216 C5        -493.1120  -344.2264   694.2483 C5            1 RES     
   34217 C5        -492.8522  -345.6910   694.5738 C5            1 RES     
   34218 C5        -492.0782  -345.8758   695.8589 C5            1 RES     
   34219 C5        -499.5217  -342.9213   689.1965 C5            1 RES     
   34220 C5        -500.2877  -341.5499   689.3344 C5            1 RES     
   34221 C5        -501.0353  -341.1262   690.6280 C5            1 RES     
   34222 C5        -502.0310  -342.1931   691.1011 C5            1 RES     
   34223 C5        -503.0124  -341.6912   692.1843 C5            1 RES     
   34224 C5        -503.7327  -342.8603   692.8917 C5            1 RES     
   34225 C5        -504.5283  -343.8178   691.9799 C5            1 RES     
   34226 C5        -505.7699  -343.2080   691.3029 C5            1 RES     
   34227 C5        -506.8586  -342.7077   692.2729 C5            1 RES     
   34228 C5        -507.4140  -343.8063   693.1836 C5            1 RES     
   34229 H6        -499.6576  -327.7687   694.2639 H6            1 RES     
   34230 H6        -501.2499  -327.7507   693.4186 H6            1 RES     
   34231 H6        -501.1372  -328.2507   695.1370 H6            1 RES     
   34232 H6        -499.7993  -330.2447   694.5472 H6            1 RES     
   34233 H6        -501.3936  -330.2938   693.6966 H6            1 RES     
   34234 H6        -500.2652  -329.5163   691.5599 H6            1 RES     
   34235 H6        -498.7558  -329.3101   692.4819 H6            1 RES     
   34236 H6        -498.5196  -331.7603   692.8738 H6            1 RES     
   34237 H6        -498.3839  -331.2519   691.1523 H6            1 RES     
   34238 H6        -500.6043  -332.2274   690.6112 H6            1 RES     
   34239 H6        -500.8396  -332.5880   692.3251 H6            1 RES     
   34240 H6        -500.5613  -334.6801   691.2648 H6            1 RES     
   34241 H6        -499.1373  -334.4500   692.3202 H6            1 RES     
   34242 H6        -499.2538  -334.4131   689.2599 H6            1 RES     
   34243 H6        -497.7123  -334.2901   690.0956 H6            1 RES     
   34244 H6        -498.2467  -336.3812   688.6144 H6            1 RES     
   34245 H6        -499.4879  -336.9063   689.7502 H6            1 RES     
   34246 H6        -496.3654  -337.2268   690.0786 H6            1 RES     
   34247 H6        -497.5963  -337.6928   691.2690 H6            1 RES     
   34248 H6        -498.0320  -339.9096   690.1148 H6            1 RES     
   34249 H6        -496.4762  -339.6729   690.8703 H6            1 RES     
   34250 H6        -495.1627  -340.2335   689.0661 H6            1 RES     
   34251 H6        -495.6659  -339.9436   686.6510 H6            1 RES     
   34252 H6        -495.7889  -338.6358   687.8146 H6            1 RES     
   34253 H6        -498.3549  -338.7522   687.8267 H6            1 RES     
   34254 H6        -498.1660  -339.8523   686.4271 H6            1 RES     
   34255 H6        -496.8786  -337.8459   685.2868 H6            1 RES     
   34256 H6        -497.2580  -336.8483   686.6698 H6            1 RES     
   34257 H6        -498.8136  -336.4126   684.7391 H6            1 RES     
   34258 H6        -499.6921  -336.9030   686.2107 H6            1 RES     
   34259 H6        -500.0016  -339.1464   685.4193 H6            1 RES     
   34260 H6        -500.6850  -338.0557   684.2267 H6            1 RES     
   34261 H6        -497.7739  -338.8462   683.6862 H6            1 RES     
   34262 H6        -498.9182  -340.1866   683.7613 H6            1 RES     
   34263 H6        -500.2801  -339.2969   681.9687 H6            1 RES     
   34264 H6        -498.5509  -339.4494   681.4912 H6            1 RES     
   34265 H6        -498.2484  -336.9700   681.8062 H6            1 RES     
   34266 H6        -499.5077  -337.3923   680.5841 H6            1 RES     
   34267 H6        -500.0110  -336.8319   682.2180 H6            1 RES     
   34268 H6        -494.5317  -342.3118   689.0164 H6            1 RES     
   34269 H6        -495.4042  -342.4968   687.5785 H6            1 RES     
   34270 H6        -497.6386  -344.4619   688.1176 H6            1 RES     
   34271 H6        -497.6741  -345.3609   689.6741 H6            1 RES     
   34272 H6        -497.6364  -342.2438   689.6919 H6            1 RES     
   34273 H6        -498.6434  -342.3477   691.7927 H6            1 RES     
   34274 H6        -498.9373  -344.1078   691.6526 H6            1 RES     
   34275 H6        -497.1860  -343.5261   693.2590 H6            1 RES     
   34276 H6        -496.6083  -344.6259   691.9555 H6            1 RES     
   34277 H6        -495.2847  -342.8837   690.9747 H6            1 RES     
   34278 H6        -496.0953  -341.5807   691.8760 H6            1 RES     
   34279 H6        -493.7748  -342.0391   692.5934 H6            1 RES     
   34280 H6        -494.9995  -342.3532   693.8835 H6            1 RES     
   34281 H6        -494.9223  -344.8003   693.3027 H6            1 RES     
   34282 H6        -493.5927  -344.4978   692.1243 H6            1 RES     
   34283 H6        -492.1640  -343.6852   694.0338 H6            1 RES     
   34284 H6        -493.6069  -343.7666   695.1291 H6            1 RES     
   34285 H6        -492.2644  -346.1218   693.7522 H6            1 RES     
   34286 H6        -493.8267  -346.2225   694.6910 H6            1 RES     
   34287 H6        -491.0724  -345.4225   695.7587 H6            1 RES     
   34288 H6        -491.9782  -346.9645   696.0576 H6            1 RES     
   34289 H6        -492.6315  -345.4078   696.6996 H6            1 RES     
   34290 H6        -500.2031  -343.7681   689.3936 H6            1 RES     
   34291 H6        -499.2880  -342.9254   688.1076 H6            1 RES     
   34292 H6        -499.6409  -340.7127   689.0104 H6            1 RES     
   34293 H6        -501.0861  -341.5895   688.5617 H6            1 RES     
   34294 H6        -500.3412  -340.8591   691.4519 H6            1 RES     
   34295 H6        -501.6041  -340.1976   690.3786 H6            1 RES     
   34296 H6        -501.4269  -343.0340   691.4982 H6            1 RES     
   34297 H6        -502.6368  -342.5432   690.2385 H6            1 RES     
   34298 H6        -503.7468  -340.9806   691.7395 H6            1 RES     
   34299 H6        -502.4532  -341.1417   692.9727 H6            1 RES     
   34300 H6        -504.3927  -342.4662   693.6931 H6            1 RES     
   34301 H6        -502.9464  -343.4644   693.3935 H6            1 RES     
   34302 H6        -504.8464  -344.6912   692.5850 H6            1 RES     
   34303 H6        -503.8552  -344.2231   691.1966 H6            1 RES     
   34304 H6        -505.4579  -342.3680   690.6472 H6            1 RES     
   34305 H6        -506.2210  -343.9899   690.6523 H6            1 RES     
   34306 H6        -506.4697  -341.8756   692.8948 H6            1 RES     
   34307 H6        -507.7003  -342.3094   691.6654 H6            1 RES     
   34308 H6        -507.8277  -344.6414   692.5788 H6            1 RES     
   34309 H6        -506.6304  -344.1977   693.8640 H6            1 RES     
   34310 H6        -508.2272  -343.3888   693.8138 H6            1 RES     
   34311 C0        -490.5810  -359.1441   690.7713 C0            1 RES     
   34312 C0        -490.9420  -358.1282   692.2742 C0            1 RES     
   34313 C0        -492.2807  -358.2864   692.6098 C0            1 RES     
   34314 S1        -492.8991  -357.1912   693.7803 S1            1 RES     
   34315 C0        -491.5858  -356.2387   694.1314 C0            1 RES     
   34316 C0        -490.5197  -356.9083   693.2177 C0            1 RES     
   34317 C0        -493.0514  -358.9141   691.5357 C0            1 RES     
   34318 C0        -492.0218  -358.6472   690.4497 C0            1 RES     
   34319 C0        -492.3031  -357.4974   689.7784 C0            1 RES     
   34320 C0        -493.5261  -356.9071   690.0878 C0            1 RES     
   34321 S1        -494.5083  -357.8355   691.2340 S1            1 RES     
   34322 H2        -489.5541  -356.4196   693.1670 H2            1 RES     
   34323 H2        -491.5726  -356.9496   689.2059 H2            1 RES     
   34324 N3        -493.7968  -353.6847   696.2627 N3            1 RES     
   34325 C0        -493.3347  -354.6352   695.4360 C0            1 RES     
   34326 C0        -491.9182  -354.9687   695.2031 C0            1 RES     
   34327 C0        -491.0941  -354.0634   696.0311 C0            1 RES     
   34328 N3        -489.7241  -354.0636   696.0778 N3            1 RES     
   34329 S1        -489.3663  -352.8739   697.1877 S1            1 RES     
   34330 N3        -490.8460  -352.2919   697.6367 N3            1 RES     
   34331 C0        -491.6797  -353.0505   696.9124 C0            1 RES     
   34332 C0        -493.0342  -352.8551   697.0269 C0            1 RES     
   34333 H4        -494.1110  -355.1560   694.9208 H4            1 RES     
   34334 C5        -490.6547  -376.0884   681.3321 C5            1 RES     
   34335 C5        -490.5735  -374.8506   682.2701 C5            1 RES     
   34336 C5        -489.6117  -373.7298   681.7555 C5            1 RES     
   34337 C5        -489.6731  -372.2866   682.4567 C5            1 RES     
   34338 C5        -489.0687  -372.0452   683.9067 C5            1 RES     
   34339 C5        -489.3199  -370.6472   684.7783 C5            1 RES     
   34340 C5        -488.6093  -369.1703   684.5607 C5            1 RES     
   34341 C5        -488.5487  -367.7899   685.6428 C5            1 RES     
   34342 C5        -489.5727  -366.4546   685.9224 C5            1 RES     
   34343 C5        -489.7234  -365.0428   687.0307 C5            1 RES     
   34344 C5        -489.1375  -363.3664   687.1768 C5            1 RES     
   34345 C5        -487.7504  -363.5647   686.3340 C5            1 RES     
   34346 C5        -486.6934  -364.6900   686.7407 C5            1 RES     
   34347 C5        -485.6887  -365.1464   685.5958 C5            1 RES     
   34348 C5        -484.5314  -366.1203   686.0410 C5            1 RES     
   34349 C5        -483.7284  -365.6240   687.2633 C5            1 RES     
   34350 C5        -483.1519  -364.1960   687.1065 C5            1 RES     
   34351 C5        -481.6245  -364.0875   687.0316 C5            1 RES     
   34352 C5        -480.9884  -364.8297   685.8613 C5            1 RES     
   34353 C5        -489.5070  -361.7153   688.1957 C5            1 RES     
   34354 C0        -490.1308  -360.8560   689.8401 C0            1 RES     
   34355 C5        -489.6443  -361.8788   690.8986 C5            1 RES     
   34356 C5        -489.8211  -363.4308   690.5305 C5            1 RES     
   34357 C5        -491.2177  -363.9810   690.8673 C5            1 RES     
   34358 C5        -492.4409  -363.1890   690.3506 C5            1 RES     
   34359 C5        -492.4624  -362.8907   688.8356 C5            1 RES     
   34360 C5        -493.8085  -362.4229   688.2979 C5            1 RES     
   34361 C5        -494.3510  -361.2130   689.0594 C5            1 RES     
   34362 C5        -495.7969  -360.9349   688.6617 C5            1 RES     
   34363 C5        -496.4085  -359.9511   689.6500 C5            1 RES     
   34364 C5        -497.8969  -359.7751   689.4543 C5            1 RES     
   34365 C5        -488.6626  -364.2936   691.1374 C5            1 RES     
   34366 C5        -488.3126  -365.7341   690.5995 C5            1 RES     
   34367 C5        -489.1772  -366.9857   690.9122 C5            1 RES     
   34368 C5        -489.4193  -367.1653   692.4164 C5            1 RES     
   34369 C5        -489.9951  -368.5492   692.7928 C5            1 RES     
   34370 C5        -490.5664  -368.5615   694.2279 C5            1 RES     
   34371 C5        -489.5855  -368.1671   695.3519 C5            1 RES     
   34372 C5        -488.4284  -369.1536   695.5968 C5            1 RES     
   34373 C5        -488.8617  -370.5684   696.0291 C5            1 RES     
   34374 C5        -489.6688  -370.5869   697.3303 C5            1 RES     
   34375 H6        -491.0254  -375.8120   680.3187 H6            1 RES     
   34376 H6        -489.6769  -376.6027   681.2167 H6            1 RES     
   34377 H6        -491.3772  -376.8381   681.7354 H6            1 RES     
   34378 H6        -491.6065  -374.4482   682.3270 H6            1 RES     
   34379 H6        -490.2624  -375.1960   683.2767 H6            1 RES     
   34380 H6        -488.5757  -374.1347   681.7044 H6            1 RES     
   34381 H6        -489.9320  -373.5704   680.6981 H6            1 RES     
   34382 H6        -490.7437  -372.0042   682.4592 H6            1 RES     
   34383 H6        -489.1276  -371.6032   681.7753 H6            1 RES     
   34384 H6        -487.9850  -372.3068   683.8667 H6            1 RES     
   34385 H6        -489.5367  -372.8664   684.5007 H6            1 RES     
   34386 H6        -488.9699  -370.9669   685.7848 H6            1 RES     
   34387 H6        -490.4154  -370.5247   684.8311 H6            1 RES     
   34388 H6        -487.5448  -369.5088   684.5027 H6            1 RES     
   34389 H6        -488.8453  -368.8384   683.5287 H6            1 RES     
   34390 H6        -487.6012  -367.3411   685.2787 H6            1 RES     
   34391 H6        -488.2866  -368.2730   686.6084 H6            1 RES     
   34392 H6        -489.7473  -366.0563   684.9016 H6            1 RES     
   34393 H6        -490.4778  -367.0385   686.1866 H6            1 RES     
   34394 H6        -489.5893  -365.5138   688.0092 H6            1 RES     
   34395 H6        -490.8039  -364.8762   686.9297 H6            1 RES     
   34396 H6        -489.6898  -362.9646   686.2979 H6            1 RES     
   34397 H6        -487.2393  -362.6087   686.1027 H6            1 RES     
   34398 H6        -488.0738  -363.9444   685.3288 H6            1 RES     
   34399 H6        -487.1903  -365.6292   687.0547 H6            1 RES     
   34400 H6        -486.1305  -364.2934   687.5998 H6            1 RES     
   34401 H6        -485.2360  -364.2641   685.1134 H6            1 RES     
   34402 H6        -486.2282  -365.6593   684.7657 H6            1 RES     
   34403 H6        -483.8288  -366.2919   685.1898 H6            1 RES     
   34404 H6        -484.9477  -367.1206   686.3030 H6            1 RES     
   34405 H6        -484.4427  -365.6256   688.1098 H6            1 RES     
   34406 H6        -482.9364  -366.3457   687.5700 H6            1 RES     
   34407 H6        -483.5905  -363.6589   686.2492 H6            1 RES     
   34408 H6        -483.4534  -363.6217   688.0074 H6            1 RES     
   34409 H6        -481.1824  -364.4593   687.9796 H6            1 RES     
   34410 H6        -481.3792  -363.0064   686.9347 H6            1 RES     
   34411 H6        -481.4068  -364.4812   684.8946 H6            1 RES     
   34412 H6        -479.8947  -364.6284   685.8690 H6            1 RES     
   34413 H6        -481.1397  -365.9238   685.9636 H6            1 RES     
   34414 H6        -490.1788  -361.2021   687.4703 H6            1 RES     
   34415 H6        -488.5697  -361.1559   687.9914 H6            1 RES     
   34416 H6        -488.5666  -361.6388   690.9766 H6            1 RES     
   34417 H6        -490.1245  -361.6642   691.8735 H6            1 RES     
   34418 H6        -489.6885  -363.6142   689.4807 H6            1 RES     
   34419 H6        -491.2845  -365.0049   690.4589 H6            1 RES     
   34420 H6        -491.3139  -364.0427   691.9678 H6            1 RES     
   34421 H6        -493.3315  -363.8004   690.6053 H6            1 RES     
   34422 H6        -492.4985  -362.2341   690.9141 H6            1 RES     
   34423 H6        -491.8036  -362.0715   688.6250 H6            1 RES     
   34424 H6        -492.1524  -363.7782   688.2611 H6            1 RES     
   34425 H6        -493.7075  -362.1648   687.2180 H6            1 RES     
   34426 H6        -494.5096  -363.2751   688.3957 H6            1 RES     
   34427 H6        -494.3668  -361.4641   690.1367 H6            1 RES     
   34428 H6        -493.7069  -360.3155   688.9147 H6            1 RES     
   34429 H6        -495.8551  -360.5504   687.6194 H6            1 RES     
   34430 H6        -496.3650  -361.8857   688.7353 H6            1 RES     
   34431 H6        -495.9237  -358.9768   689.5023 H6            1 RES     
   34432 H6        -496.2497  -360.3242   690.6898 H6            1 RES     
   34433 H6        -498.0942  -359.3374   688.4559 H6            1 RES     
   34434 H6        -498.2784  -359.0916   690.2429 H6            1 RES     
   34435 H6        -498.4061  -360.7564   689.5539 H6            1 RES     
   34436 H6        -488.7288  -364.2966   692.2400 H6            1 RES     
   34437 H6        -487.7416  -363.7333   690.8582 H6            1 RES     
   34438 H6        -488.1185  -365.7024   689.5107 H6            1 RES     
   34439 H6        -487.3219  -365.9723   691.0440 H6            1 RES     
   34440 H6        -490.1442  -366.9812   690.3673 H6            1 RES     
   34441 H6        -488.6062  -367.8700   690.5380 H6            1 RES     
   34442 H6        -490.1261  -366.3663   692.7194 H6            1 RES     
   34443 H6        -488.4605  -367.0428   692.9633 H6            1 RES     
   34444 H6        -489.2174  -369.3374   692.6661 H6            1 RES     
   34445 H6        -490.8391  -368.8024   692.1149 H6            1 RES     
   34446 H6        -491.0125  -369.5547   694.4470 H6            1 RES     
   34447 H6        -491.3992  -367.8259   694.2475 H6            1 RES     
   34448 H6        -490.1612  -368.0540   696.2931 H6            1 RES     
   34449 H6        -489.1626  -367.1646   695.1351 H6            1 RES     
   34450 H6        -487.8088  -369.2312   694.6787 H6            1 RES     
   34451 H6        -487.7847  -368.7300   696.3995 H6            1 RES     
   34452 H6        -489.4494  -371.0556   695.2243 H6            1 RES     
   34453 H6        -487.9426  -371.1732   696.1884 H6            1 RES     
   34454 H6        -489.0885  -370.1210   698.1551 H6            1 RES     
   34455 H6        -490.6337  -370.0528   697.2116 H6            1 RES     
   34456 H6        -489.8989  -371.6370   697.6083 H6            1 RES     
   34457 C0        -495.7176  -348.5093   697.9693 C0            1 RES     
   34458 C0        -496.8243  -349.9474   697.6107 C0            1 RES     
   34459 C0        -496.6818  -350.8852   698.6256 C0            1 RES     
   34460 S1        -497.3783  -352.4277   698.3300 S1            1 RES     
   34461 C0        -498.0267  -352.2601   696.8112 C0            1 RES     
   34462 C0        -497.6626  -350.7744   696.5290 C0            1 RES     
   34463 C0        -495.5107  -350.6227   699.4629 C0            1 RES     
   34464 C0        -494.8346  -349.6905   698.4707 C0            1 RES     
   34465 C0        -493.9434  -350.3638   697.6933 C0            1 RES     
   34466 C0        -493.7060  -351.6858   698.0619 C0            1 RES     
   34467 S1        -494.5533  -352.1896   699.5345 S1            1 RES     
   34468 H2        -497.8860  -350.4045   695.5355 H2            1 RES     
   34469 H2        -493.5930  -350.0012   696.7408 H2            1 RES     
   34470 N3        -498.8258  -356.1641   696.5390 N3            1 RES     
   34471 C0        -498.3692  -354.9455   696.8662 C0            1 RES     
   34472 C0        -498.7076  -353.6814   696.1883 C0            1 RES     
   34473 C0        -499.6292  -353.9928   695.0756 C0            1 RES     
   34474 N3        -500.1592  -353.0733   694.2081 N3            1 RES     
   34475 S1        -501.1327  -353.9861   693.2109 S1            1 RES     
   34476 N3        -500.9340  -355.5295   693.7665 N3            1 RES     
   34477 C0        -500.0828  -355.3552   694.7863 C0            1 RES     
   34478 C0        -499.6779  -356.4464   695.5154 C0            1 RES     
   34479 H4        -497.6958  -354.9588   697.6942 H4            1 RES     
   34480 C5        -489.5144  -334.4040   709.7496 C5            1 RES     
   34481 C5        -490.2237  -335.4735   708.8711 C5            1 RES     
   34482 C5        -489.9232  -335.3360   707.3424 C5            1 RES     
   34483 C5        -490.3326  -336.5461   706.3695 C5            1 RES     
   34484 C5        -491.8493  -336.8156   705.9781 C5            1 RES     
   34485 C5        -492.3553  -338.1891   705.1815 C5            1 RES     
   34486 C5        -492.1863  -338.5569   703.5785 C5            1 RES     
   34487 C5        -493.0000  -339.7831   702.6223 C5            1 RES     
   34488 C5        -492.6945  -341.4290   702.2937 C5            1 RES     
   34489 C5        -493.4526  -342.8290   701.4515 C5            1 RES     
   34490 C5        -493.5451  -343.5410   699.8208 C5            1 RES     
   34491 C5        -493.2901  -342.1596   698.9841 C5            1 RES     
   34492 C5        -494.2091  -340.8748   699.2159 C5            1 RES     
   34493 C5        -493.5781  -339.4812   698.7824 C5            1 RES     
   34494 C5        -494.5457  -338.2375   698.8398 C5            1 RES     
   34495 C5        -495.8847  -338.4491   698.0999 C5            1 RES     
   34496 C5        -495.7314  -338.8999   696.6270 C5            1 RES     
   34497 C5        -496.1890  -337.8970   695.5616 C5            1 RES     
   34498 C5        -495.4462  -336.5655   695.5773 C5            1 RES     
   34499 C5        -494.1071  -345.2092   698.9252 C5            1 RES     
   34500 C0        -495.2743  -346.7797   698.8705 C0            1 RES     
   34501 C5        -496.5767  -346.1879   699.4679 C5            1 RES     
   34502 C5        -496.4062  -345.1938   700.7160 C5            1 RES     
   34503 C5        -496.3029  -345.9239   702.0661 C5            1 RES     
   34504 C5        -495.2730  -347.0715   702.1803 C5            1 RES     
   34505 C5        -493.8228  -346.7207   701.7817 C5            1 RES     
   34506 C5        -492.7784  -347.7398   702.2183 C5            1 RES     
   34507 C5        -493.1075  -349.1534   701.7371 C5            1 RES     
   34508 C5        -492.1851  -350.1720   702.3988 C5            1 RES     
   34509 C5        -492.7326  -351.5728   702.1613 C5            1 RES     
   34510 C5        -491.9967  -352.6299   702.9524 C5            1 RES     
   34511 C5        -497.5068  -344.0787   700.7079 C5            1 RES     
   34512 C5        -497.3502  -342.7328   701.5146 C5            1 RES     
   34513 C5        -497.5185  -342.6473   703.0561 C5            1 RES     
   34514 C5        -498.8472  -343.2493   703.5312 C5            1 RES     
   34515 C5        -499.1968  -342.9062   704.9969 C5            1 RES     
   34516 C5        -500.3197  -343.8136   705.5462 C5            1 RES     
   34517 C5        -501.6464  -343.8033   704.7583 C5            1 RES     
   34518 C5        -502.4310  -342.4787   704.8009 C5            1 RES     
   34519 C5        -502.8874  -342.0391   706.2062 C5            1 RES     
   34520 C5        -503.8039  -343.0547   706.8941 C5            1 RES     
   34521 H6        -488.4062  -334.4616   709.6516 H6            1 RES     
   34522 H6        -489.8322  -333.3685   709.5032 H6            1 RES     
   34523 H6        -489.7417  -334.5717   710.8297 H6            1 RES     
   34524 H6        -489.8489  -336.4545   709.2305 H6            1 RES     
   34525 H6        -491.3147  -335.4106   709.0586 H6            1 RES     
   34526 H6        -490.3048  -334.3534   706.9836 H6            1 RES     
   34527 H6        -488.8099  -335.2690   707.2959 H6            1 RES     
   34528 H6        -489.9123  -337.4572   706.8377 H6            1 RES     
   34529 H6        -489.7957  -336.3558   705.4186 H6            1 RES     
   34530 H6        -492.2366  -335.8949   705.4812 H6            1 RES     
   34531 H6        -492.3538  -336.8338   706.9738 H6            1 RES     
   34532 H6        -493.4562  -338.1158   705.3247 H6            1 RES     
   34533 H6        -491.9964  -339.0346   705.7933 H6            1 RES     
   34534 H6        -492.5618  -337.5942   703.1502 H6            1 RES     
   34535 H6        -491.1007  -338.5506   703.3502 H6            1 RES     
   34536 H6        -492.9338  -339.2859   701.6323 H6            1 RES     
   34537 H6        -494.0564  -339.6518   702.9408 H6            1 RES     
   34538 H6        -491.6311  -341.4267   701.9771 H6            1 RES     
   34539 H6        -492.7039  -341.7753   703.3472 H6            1 RES     
   34540 H6        -494.4736  -342.7975   701.8440 H6            1 RES     
   34541 H6        -492.9505  -343.6359   702.0013 H6            1 RES     
   34542 H6        -492.4778  -343.8511   699.7597 H6            1 RES     
   34543 H6        -493.1154  -342.3295   697.9028 H6            1 RES     
   34544 H6        -492.3044  -341.7731   699.3560 H6            1 RES     
   34545 H6        -494.4627  -340.7359   700.2855 H6            1 RES     
   34546 H6        -495.1426  -341.0546   698.6605 H6            1 RES     
   34547 H6        -493.1619  -339.5527   697.7637 H6            1 RES     
   34548 H6        -492.6970  -339.2223   699.4149 H6            1 RES     
   34549 H6        -494.0357  -337.3377   698.4182 H6            1 RES     
   34550 H6        -494.7890  -337.9859   699.8982 H6            1 RES     
   34551 H6        -496.4121  -339.2459   698.6601 H6            1 RES     
   34552 H6        -496.5570  -337.5639   698.1815 H6            1 RES     
   34553 H6        -494.7043  -339.2255   696.3932 H6            1 RES     
   34554 H6        -496.3697  -339.7981   696.4927 H6            1 RES     
   34555 H6        -497.2764  -337.7065   695.6785 H6            1 RES     
   34556 H6        -496.0252  -338.3769   694.5710 H6            1 RES     
   34557 H6        -494.3534  -336.7182   695.4607 H6            1 RES     
   34558 H6        -495.8119  -335.9479   694.7278 H6            1 RES     
   34559 H6        -495.6503  -336.0150   696.5185 H6            1 RES     
   34560 H6        -493.1224  -345.7275   698.8744 H6            1 RES     
   34561 H6        -494.1681  -344.8472   697.8771 H6            1 RES     
   34562 H6        -496.9958  -345.6314   698.6077 H6            1 RES     
   34563 H6        -497.2735  -347.0082   699.7301 H6            1 RES     
   34564 H6        -495.5121  -344.6035   700.6424 H6            1 RES     
   34565 H6        -496.0553  -345.1734   702.8375 H6            1 RES     
   34566 H6        -497.2933  -346.3530   702.3090 H6            1 RES     
   34567 H6        -495.2829  -347.3871   703.2443 H6            1 RES     
   34568 H6        -495.6297  -347.9201   701.5597 H6            1 RES     
   34569 H6        -493.7403  -346.7109   700.7128 H6            1 RES     
   34570 H6        -493.5356  -345.7381   702.1888 H6            1 RES     
   34571 H6        -491.7794  -347.4390   701.8254 H6            1 RES     
   34572 H6        -492.7469  -347.7163   703.3255 H6            1 RES     
   34573 H6        -494.1334  -349.3994   702.0700 H6            1 RES     
   34574 H6        -493.0687  -349.2272   700.6261 H6            1 RES     
   34575 H6        -491.1452  -350.0735   702.0159 H6            1 RES     
   34576 H6        -492.1932  -349.9865   703.4932 H6            1 RES     
   34577 H6        -492.6230  -351.8030   701.0931 H6            1 RES     
   34578 H6        -493.8042  -351.6087   702.4711 H6            1 RES     
   34579 H6        -490.9400  -352.6763   702.6231 H6            1 RES     
   34580 H6        -492.4867  -353.6108   702.7723 H6            1 RES     
   34581 H6        -492.0544  -352.3944   704.0356 H6            1 RES     
   34582 H6        -498.5011  -344.5252   700.8873 H6            1 RES     
   34583 H6        -497.4928  -343.7011   699.6604 H6            1 RES     
   34584 H6        -496.4098  -342.2220   701.2336 H6            1 RES     
   34585 H6        -498.1481  -342.0676   701.1186 H6            1 RES     
   34586 H6        -496.6714  -343.1119   703.6025 H6            1 RES     
   34587 H6        -497.5083  -341.5616   703.3189 H6            1 RES     
   34588 H6        -498.7562  -344.3480   703.4111 H6            1 RES     
   34589 H6        -499.6743  -342.8713   702.8936 H6            1 RES     
   34590 H6        -499.4740  -341.8303   705.0851 H6            1 RES     
   34591 H6        -498.3090  -343.0753   705.6446 H6            1 RES     
   34592 H6        -500.5117  -343.5712   706.6128 H6            1 RES     
   34593 H6        -499.9319  -344.8547   705.5200 H6            1 RES     
   34594 H6        -502.2933  -344.6123   705.1545 H6            1 RES     
   34595 H6        -501.4469  -344.0682   703.6996 H6            1 RES     
   34596 H6        -501.8158  -341.6704   704.3526 H6            1 RES     
   34597 H6        -503.3372  -342.5997   704.1666 H6            1 RES     
   34598 H6        -502.0087  -341.8387   706.8530 H6            1 RES     
   34599 H6        -503.4514  -341.0869   706.0998 H6            1 RES     
   34600 H6        -504.7016  -343.2540   706.2707 H6            1 RES     
   34601 H6        -503.2717  -344.0083   707.0885 H6            1 RES     
   34602 H6        -504.1355  -342.6503   707.8735 H6            1 RES     
   34603 C0        -498.9443  -361.3706   694.0360 C0            1 RES     
   34604 C0        -498.4351  -361.0874   695.7915 C0            1 RES     
   34605 C0        -499.5622  -360.7686   696.5382 C0            1 RES     
   34606 S1        -499.2725  -360.1622   698.1193 S1            1 RES     
   34607 C0        -497.6156  -360.1559   698.2194 C0            1 RES     
   34608 C0        -497.2626  -360.7425   696.8226 C0            1 RES     
   34609 C0        -500.7118  -360.4401   695.6943 C0            1 RES     
   34610 C0        -499.8973  -360.2041   694.4328 C0            1 RES     
   34611 C0        -499.5973  -358.8854   694.2816 C0            1 RES     
   34612 C0        -500.2193  -358.0227   695.1809 C0            1 RES     
   34613 S1        -501.3523  -358.8220   696.2845 S1            1 RES     
   34614 H2        -496.2113  -360.7656   696.5621 H2            1 RES     
   34615 H2        -498.7888  -358.5267   693.6658 H2            1 RES     
   34616 N3        -497.6640  -358.1362   701.6650 N3            1 RES     
   34617 C0        -497.9460  -358.7137   700.4871 C0            1 RES     
   34618 C0        -497.0113  -359.4957   699.6584 C0            1 RES     
   34619 C0        -495.7037  -359.5221   700.3466 C0            1 RES     
   34620 N3        -494.5774  -360.1481   699.8790 N3            1 RES     
   34621 S1        -493.4477  -359.8722   701.0719 S1            1 RES     
   34622 N3        -494.2617  -358.9646   702.1871 N3            1 RES     
   34623 C0        -495.4791  -358.8657   701.6367 C0            1 RES     
   34624 C0        -496.4588  -358.1661   702.2977 C0            1 RES     
   34625 H4        -498.9513  -358.5477   700.1691 H4            1 RES     
   34626 C5        -509.9104  -370.3485   680.7938 C5            1 RES     
   34627 C5        -509.0076  -369.8365   681.9519 C5            1 RES     
   34628 C5        -507.6833  -369.1591   681.4687 C5            1 RES     
   34629 C5        -506.8210  -368.3188   682.5311 C5            1 RES     
   34630 C5        -505.9610  -369.0422   683.6552 C5            1 RES     
   34631 C5        -505.2515  -368.2291   684.9250 C5            1 RES     
   34632 C5        -503.8874  -367.2951   684.9009 C5            1 RES     
   34633 C5        -502.8992  -366.7270   686.2354 C5            1 RES     
   34634 C5        -502.9506  -365.3583   687.2523 C5            1 RES     
   34635 C5        -502.1134  -364.6841   688.6974 C5            1 RES     
   34636 C5        -500.6822  -363.7013   689.0985 C5            1 RES     
   34637 C5        -499.7944  -364.0938   687.7827 C5            1 RES     
   34638 C5        -499.4896  -365.6184   687.4198 C5            1 RES     
   34639 C5        -499.1057  -365.9090   685.9044 C5            1 RES     
   34640 C5        -498.6289  -367.3771   685.5824 C5            1 RES     
   34641 C5        -497.5019  -367.8882   686.5064 C5            1 RES     
   34642 C5        -496.2648  -366.9601   686.5714 C5            1 RES     
   34643 C5        -494.9692  -367.5169   685.9699 C5            1 RES     
   34644 C5        -495.0487  -367.8561   684.4855 C5            1 RES     
   34645 C5        -499.9054  -362.7041   690.6161 C5            1 RES     
   34646 C0        -499.6748  -362.4898   692.5480 C0            1 RES     
   34647 C5        -499.6747  -363.9723   693.0014 C5            1 RES     
   34648 C5        -500.7385  -364.9401   692.2892 C5            1 RES     
   34649 C5        -502.1300  -364.9018   692.9439 C5            1 RES     
   34650 C5        -502.7729  -363.5146   693.1742 C5            1 RES     
   34651 C5        -502.8681  -362.5993   691.9340 C5            1 RES     
   34652 C5        -503.7944  -361.4012   692.0967 C5            1 RES     
   34653 C5        -503.4447  -360.5572   693.3228 C5            1 RES     
   34654 C5        -504.5353  -359.5250   693.5905 C5            1 RES     
   34655 C5        -504.3309  -358.9274   694.9760 C5            1 RES     
   34656 C5        -505.4804  -358.0459   695.4077 C5            1 RES     
   34657 C5        -500.1732  -366.3939   692.1418 C5            1 RES     
   34658 C5        -500.7720  -367.4321   691.1169 C5            1 RES     
   34659 C5        -502.1218  -368.1647   691.3478 C5            1 RES     
   34660 C5        -502.1778  -368.8663   692.7110 C5            1 RES     
   34661 C5        -503.3547  -369.8578   692.8522 C5            1 RES     
   34662 C5        -503.5981  -370.2530   694.3256 C5            1 RES     
   34663 C5        -502.3981  -370.8784   695.0672 C5            1 RES     
   34664 C5        -501.9606  -372.2670   694.5651 C5            1 RES     
   34665 C5        -503.0293  -373.3705   694.6936 C5            1 RES     
   34666 C5        -503.4901  -373.6068   696.1347 C5            1 RES     
   34667 H6        -510.2225  -369.5189   680.1191 H6            1 RES     
   34668 H6        -509.4153  -371.1299   680.1787 H6            1 RES     
   34669 H6        -510.8513  -370.7929   681.1985 H6            1 RES     
   34670 H6        -509.6190  -369.0920   682.5032 H6            1 RES     
   34671 H6        -508.7835  -370.6906   682.6226 H6            1 RES     
   34672 H6        -507.0698  -369.9095   680.9207 H6            1 RES     
   34673 H6        -508.0261  -368.4234   680.7023 H6            1 RES     
   34674 H6        -507.5385  -367.6271   683.0134 H6            1 RES     
   34675 H6        -506.1060  -367.7243   681.9277 H6            1 RES     
   34676 H6        -505.2273  -369.7069   683.1411 H6            1 RES     
   34677 H6        -506.7032  -369.7395   684.1125 H6            1 RES     
   34678 H6        -504.9814  -369.0802   685.5888 H6            1 RES     
   34679 H6        -506.0699  -367.6732   685.4142 H6            1 RES     
   34680 H6        -503.2149  -368.0034   684.3556 H6            1 RES     
   34681 H6        -504.0617  -366.4736   684.1761 H6            1 RES     
   34682 H6        -501.9350  -366.6339   685.6938 H6            1 RES     
   34683 H6        -502.7981  -367.6485   686.8480 H6            1 RES     
   34684 H6        -503.0361  -364.5171   686.5338 H6            1 RES     
   34685 H6        -503.9711  -365.5311   687.6506 H6            1 RES     
   34686 H6        -502.1080  -365.5453   689.3724 H6            1 RES     
   34687 H6        -502.9197  -364.0321   689.0584 H6            1 RES     
   34688 H6        -501.0515  -362.7535   688.6464 H6            1 RES     
   34689 H6        -498.8841  -363.4717   687.6683 H6            1 RES     
   34690 H6        -500.4302  -363.8002   686.9058 H6            1 RES     
   34691 H6        -500.3657  -366.2705   687.6067 H6            1 RES     
   34692 H6        -498.6723  -365.9399   688.0838 H6            1 RES     
   34693 H6        -498.3243  -365.2069   685.5688 H6            1 RES     
   34694 H6        -499.9637  -365.7015   685.2232 H6            1 RES     
   34695 H6        -498.2867  -367.4428   684.5212 H6            1 RES     
   34696 H6        -499.4813  -368.0893   685.6756 H6            1 RES     
   34697 H6        -497.9505  -367.9501   687.5173 H6            1 RES     
   34698 H6        -497.2060  -368.9367   686.2718 H6            1 RES     
   34699 H6        -496.4627  -365.9668   686.1356 H6            1 RES     
   34700 H6        -496.0482  -366.7798   687.6451 H6            1 RES     
   34701 H6        -494.6621  -368.4233   686.5326 H6            1 RES     
   34702 H6        -494.1851  -366.7397   686.1093 H6            1 RES     
   34703 H6        -495.3523  -366.9701   683.8906 H6            1 RES     
   34704 H6        -494.0426  -368.1857   684.1449 H6            1 RES     
   34705 H6        -495.7623  -368.6875   684.3121 H6            1 RES     
   34706 H6        -500.2860  -361.6850   690.3762 H6            1 RES     
   34707 H6        -498.8626  -362.5913   690.2513 H6            1 RES     
   34708 H6        -498.6490  -364.2959   692.7400 H6            1 RES     
   34709 H6        -499.7916  -364.0262   694.1016 H6            1 RES     
   34710 H6        -500.9001  -364.6750   691.2612 H6            1 RES     
   34711 H6        -502.8176  -365.4888   692.3096 H6            1 RES     
   34712 H6        -502.0662  -365.3965   693.9315 H6            1 RES     
   34713 H6        -503.7983  -363.7110   693.5508 H6            1 RES     
   34714 H6        -502.2003  -362.9954   693.9711 H6            1 RES     
   34715 H6        -501.9097  -362.1583   691.7432 H6            1 RES     
   34716 H6        -503.1989  -363.1726   691.0533 H6            1 RES     
   34717 H6        -503.7420  -360.7647   691.1829 H6            1 RES     
   34718 H6        -504.8236  -361.7992   692.1943 H6            1 RES     
   34719 H6        -503.4240  -361.2247   694.2048 H6            1 RES     
   34720 H6        -502.4443  -360.0778   693.2183 H6            1 RES     
   34721 H6        -504.5368  -358.7365   692.8058 H6            1 RES     
   34722 H6        -505.5145  -360.0478   693.5885 H6            1 RES     
   34723 H6        -503.4186  -358.3166   694.9505 H6            1 RES     
   34724 H6        -504.2413  -359.7505   695.7245 H6            1 RES     
   34725 H6        -505.5590  -357.1739   694.7290 H6            1 RES     
   34726 H6        -505.2867  -357.6953   696.4441 H6            1 RES     
   34727 H6        -506.4242  -358.6301   695.3979 H6            1 RES     
   34728 H6        -500.0520  -366.8571   693.1373 H6            1 RES     
   34729 H6        -499.1551  -366.2399   691.7174 H6            1 RES     
   34730 H6        -500.7705  -367.0092   690.0945 H6            1 RES     
   34731 H6        -500.0236  -368.2529   691.0712 H6            1 RES     
   34732 H6        -502.9964  -367.4919   691.2280 H6            1 RES     
   34733 H6        -502.2056  -368.9397   690.5477 H6            1 RES     
   34734 H6        -502.2636  -368.0661   693.4740 H6            1 RES     
   34735 H6        -501.2391  -369.4374   692.8727 H6            1 RES     
   34736 H6        -503.1768  -370.7593   692.2214 H6            1 RES     
   34737 H6        -504.2932  -369.3810   692.4942 H6            1 RES     
   34738 H6        -504.4777  -370.9273   694.3941 H6            1 RES     
   34739 H6        -503.8673  -369.3206   694.8670 H6            1 RES     
   34740 H6        -502.6546  -370.9542   696.1435 H6            1 RES     
   34741 H6        -501.5317  -370.1875   695.0119 H6            1 RES     
   34742 H6        -501.6448  -372.1932   693.5032 H6            1 RES     
   34743 H6        -501.0713  -372.5780   695.1572 H6            1 RES     
   34744 H6        -503.9084  -373.1329   694.0602 H6            1 RES     
   34745 H6        -502.5883  -374.3186   694.3160 H6            1 RES     
   34746 H6        -502.6256  -373.8665   696.7823 H6            1 RES     
   34747 H6        -504.0011  -372.7116   696.5445 H6            1 RES     
   34748 H6        -504.2155  -374.4470   696.1583 H6            1 RES     
   34749 C0        -496.0905  -354.0129   705.3944 C0            1 RES     
   34750 C0        -497.8489  -354.4856   705.0692 C0            1 RES     
   34751 C0        -498.0896  -355.7304   705.6368 C0            1 RES     
   34752 S1        -499.5608  -356.4936   705.1842 S1            1 RES     
   34753 C0        -500.2411  -355.4016   704.1354 C0            1 RES     
   34754 C0        -499.1654  -354.2790   704.1856 C0            1 RES     
   34755 C0        -496.8533  -356.4153   706.0165 C0            1 RES     
   34756 C0        -495.9436  -355.5463   705.1633 C0            1 RES     
   34757 C0        -495.7135  -356.1191   703.9505 C0            1 RES     
   34758 C0        -496.1933  -357.4181   703.8010 C0            1 RES     
   34759 S1        -496.9284  -358.0911   705.2663 S1            1 RES     
   34760 H2        -499.3022  -353.4506   703.5010 H2            1 RES     
   34761 H2        -495.3791  -355.5680   703.0869 H2            1 RES     
   34762 N3        -503.1013  -357.9703   703.0516 N3            1 RES     
   34763 C0        -502.0005  -357.3677   703.5265 C0            1 RES     
   34764 C0        -501.6849  -355.9317   703.4240 C0            1 RES     
   34765 C0        -502.7886  -355.2728   702.6946 C0            1 RES     
   34766 N3        -502.8510  -353.9366   702.3955 N3            1 RES     
   34767 S1        -504.3119  -353.7748   701.6114 S1            1 RES     
   34768 N3        -504.9160  -355.3123   701.5764 N3            1 RES     
   34769 C0        -503.9607  -356.0057   702.2100 C0            1 RES     
   34770 C0        -504.1178  -357.3590   702.3834 C0            1 RES     
   34771 H4        -501.3250  -358.0434   704.0022 H4            1 RES     
   34772 C5        -481.3164  -350.9953   717.5943 C5            1 RES     
   34773 C5        -482.6294  -351.1251   716.7710 C5            1 RES     
   34774 C5        -482.5529  -350.4712   715.3523 C5            1 RES     
   34775 C5        -483.7141  -350.8011   714.2934 C5            1 RES     
   34776 C5        -485.1650  -350.1673   714.4329 C5            1 RES     
   34777 C5        -486.4673  -350.6602   713.5175 C5            1 RES     
   34778 C5        -486.7903  -350.3091   711.9344 C5            1 RES     
   34779 C5        -488.2878  -350.4804   711.0356 C5            1 RES     
   34780 C5        -489.0033  -351.7519   710.1517 C5            1 RES     
   34781 C5        -490.5335  -352.1339   709.2819 C5            1 RES     
   34782 C5        -491.2653  -351.9232   707.6711 C5            1 RES     
   34783 C5        -490.4254  -350.5873   707.2426 C5            1 RES     
   34784 C5        -490.4267  -349.2832   708.1635 C5            1 RES     
   34785 C5        -489.2084  -348.2831   707.9543 C5            1 RES     
   34786 C5        -489.3001  -346.9120   708.7276 C5            1 RES     
   34787 C5        -490.6296  -346.1566   708.5109 C5            1 RES     
   34788 C5        -490.9906  -345.9211   707.0242 C5            1 RES     
   34789 C5        -490.9792  -344.4638   706.5481 C5            1 RES     
   34790 C5        -489.6320  -343.7611   706.6752 C5            1 RES     
   34791 C5        -492.7926  -352.5771   706.6030 C5            1 RES     
   34792 C0        -494.6251  -353.2612   706.5294 C0            1 RES     
   34793 C5        -495.2650  -352.4903   707.7124 C5            1 RES     
   34794 C5        -494.3745  -352.3456   709.0397 C5            1 RES     
   34795 C5        -494.4783  -353.5603   709.9778 C5            1 RES     
   34796 C5        -494.2550  -354.9603   709.3607 C5            1 RES     
   34797 C5        -492.9401  -355.1503   708.5734 C5            1 RES     
   34798 C5        -492.5820  -356.5998   708.2726 C5            1 RES     
   34799 C5        -493.7114  -357.3422   707.5577 C5            1 RES     
   34800 C5        -493.4166  -358.8376   707.5007 C5            1 RES     
   34801 C5        -494.6782  -359.5820   707.0854 C5            1 RES     
   34802 C5        -494.5363  -361.0825   707.2006 C5            1 RES     
   34803 C5        -494.6567  -350.9868   709.7670 C5            1 RES     
   34804 C5        -493.6533  -350.3656   710.8130 C5            1 RES     
   34805 C5        -493.4962  -350.9098   712.2591 C5            1 RES     
   34806 C5        -494.8389  -351.0033   712.9952 C5            1 RES     
   34807 C5        -494.6992  -351.2330   714.5171 C5            1 RES     
   34808 C5        -496.0311  -351.6883   715.1531 C5            1 RES     
   34809 C5        -497.2354  -350.7441   714.9544 C5            1 RES     
   34810 C5        -497.1351  -349.3842   715.6703 C5            1 RES     
   34811 C5        -497.0388  -349.4646   717.2067 C5            1 RES     
   34812 C5        -498.2400  -350.1571   717.8566 C5            1 RES     
   34813 H6        -480.4589  -351.4861   717.0797 H6            1 RES     
   34814 H6        -481.0416  -349.9384   717.7977 H6            1 RES     
   34815 H6        -481.4218  -351.5057   718.5817 H6            1 RES     
   34816 H6        -482.8095  -352.2149   716.6620 H6            1 RES     
   34817 H6        -483.4555  -350.6776   717.3598 H6            1 RES     
   34818 H6        -482.3775  -349.3774   715.4649 H6            1 RES     
   34819 H6        -481.6140  -350.8901   714.9175 H6            1 RES     
   34820 H6        -483.8007  -351.9049   714.2837 H6            1 RES     
   34821 H6        -483.3226  -350.4673   713.3116 H6            1 RES     
   34822 H6        -485.0507  -349.0578   714.4078 H6            1 RES     
   34823 H6        -485.4274  -350.4012   715.4924 H6            1 RES     
   34824 H6        -487.3029  -350.1806   714.0739 H6            1 RES     
   34825 H6        -486.5447  -351.7496   713.6763 H6            1 RES     
   34826 H6        -486.6319  -349.2025   711.9777 H6            1 RES     
   34827 H6        -485.9367  -350.6822   711.3320 H6            1 RES     
   34828 H6        -488.1169  -349.6821   710.2838 H6            1 RES     
   34829 H6        -489.0267  -350.0531   711.7470 H6            1 RES     
   34830 H6        -488.1843  -352.0791   709.4785 H6            1 RES     
   34831 H6        -489.0340  -352.4859   710.9825 H6            1 RES     
   34832 H6        -491.2870  -351.8330   710.0162 H6            1 RES     
   34833 H6        -490.4826  -353.2290   709.3443 H6            1 RES     
   34834 H6        -490.5753  -352.6091   707.1303 H6            1 RES     
   34835 H6        -490.5504  -350.3163   706.1751 H6            1 RES     
   34836 H6        -489.3465  -350.8868   707.3172 H6            1 RES     
   34837 H6        -490.3853  -349.5383   709.2409 H6            1 RES     
   34838 H6        -491.3779  -348.7642   707.9682 H6            1 RES     
   34839 H6        -489.0716  -348.0698   706.8810 H6            1 RES     
   34840 H6        -488.2439  -348.7516   708.2602 H6            1 RES     
   34841 H6        -488.4524  -346.2486   708.4295 H6            1 RES     
   34842 H6        -489.1896  -347.0788   709.8242 H6            1 RES     
   34843 H6        -491.4122  -346.7937   708.9677 H6            1 RES     
   34844 H6        -490.6750  -345.2061   709.0911 H6            1 RES     
   34845 H6        -490.3697  -346.5245   706.3415 H6            1 RES     
   34846 H6        -492.0313  -346.2795   706.8804 H6            1 RES     
   34847 H6        -491.7430  -343.8871   707.1106 H6            1 RES     
   34848 H6        -491.2703  -344.4698   705.4740 H6            1 RES     
   34849 H6        -488.8428  -344.3109   706.1219 H6            1 RES     
   34850 H6        -489.7246  -342.7407   706.2427 H6            1 RES     
   34851 H6        -489.3426  -343.6603   707.7412 H6            1 RES     
   34852 H6        -492.2837  -353.3933   706.0411 H6            1 RES     
   34853 H6        -492.8098  -351.8021   705.8077 H6            1 RES     
   34854 H6        -495.4368  -351.4892   707.2726 H6            1 RES     
   34855 H6        -496.2467  -352.9384   707.9626 H6            1 RES     
   34856 H6        -493.3289  -352.2477   708.8152 H6            1 RES     
   34857 H6        -493.7364  -353.4276   710.7850 H6            1 RES     
   34858 H6        -495.4862  -353.5653   710.4343 H6            1 RES     
   34859 H6        -494.2674  -355.6748   710.2099 H6            1 RES     
   34860 H6        -495.1163  -355.1883   708.6983 H6            1 RES     
   34861 H6        -493.0387  -354.7040   707.6036 H6            1 RES     
   34862 H6        -492.0955  -354.6922   709.1126 H6            1 RES     
   34863 H6        -491.6623  -356.6319   707.6433 H6            1 RES     
   34864 H6        -492.3656  -357.0875   709.2435 H6            1 RES     
   34865 H6        -494.6323  -357.2289   708.1602 H6            1 RES     
   34866 H6        -493.8988  -356.9231   706.5426 H6            1 RES     
   34867 H6        -492.5741  -359.0499   706.8059 H6            1 RES     
   34868 H6        -493.1448  -359.1759   708.5224 H6            1 RES     
   34869 H6        -494.8877  -359.3350   706.0360 H6            1 RES     
   34870 H6        -495.5237  -359.2744   707.7459 H6            1 RES     
   34871 H6        -493.7518  -361.4389   706.5044 H6            1 RES     
   34872 H6        -495.5091  -361.5505   706.9372 H6            1 RES     
   34873 H6        -494.2791  -361.3549   708.2455 H6            1 RES     
   34874 H6        -495.6875  -350.9754   710.1639 H6            1 RES     
   34875 H6        -494.6039  -350.2331   708.9489 H6            1 RES     
   34876 H6        -492.6473  -350.2579   710.3653 H6            1 RES     
   34877 H6        -493.9998  -349.3188   710.9546 H6            1 RES     
   34878 H6        -492.9742  -351.8889   712.2903 H6            1 RES     
   34879 H6        -492.8440  -350.1849   712.8041 H6            1 RES     
   34880 H6        -495.3928  -351.8464   712.5347 H6            1 RES     
   34881 H6        -495.4071  -350.0599   712.8509 H6            1 RES     
   34882 H6        -494.3151  -350.3112   715.0122 H6            1 RES     
   34883 H6        -493.9640  -352.0447   714.7089 H6            1 RES     
   34884 H6        -495.8826  -351.8886   716.2352 H6            1 RES     
   34885 H6        -496.2957  -352.6594   714.6818 H6            1 RES     
   34886 H6        -498.1486  -351.2650   715.3074 H6            1 RES     
   34887 H6        -497.3891  -350.5682   713.8699 H6            1 RES     
   34888 H6        -496.2565  -348.8268   715.2828 H6            1 RES     
   34889 H6        -498.0440  -348.7963   715.4124 H6            1 RES     
   34890 H6        -496.1064  -349.9840   717.5090 H6            1 RES     
   34891 H6        -496.9888  -348.4262   717.6005 H6            1 RES     
   34892 H6        -499.1836  -349.6389   717.5823 H6            1 RES     
   34893 H6        -498.3027  -351.2218   717.5516 H6            1 RES     
   34894 H6        -498.1296  -350.1308   718.9611 H6            1 RES     
   34895 C0        -506.4854  -360.8632   699.3685 C0            1 RES     
   34896 C0        -505.6310  -361.6476   700.8093 C0            1 RES     
   34897 C0        -506.2552  -361.2332   701.9790 C0            1 RES     
   34898 S1        -505.4288  -361.5913   703.4421 S1            1 RES     
   34899 C0        -504.0561  -362.3627   702.9169 C0            1 RES     
   34900 C0        -504.3169  -362.3549   701.3834 C0            1 RES     
   34901 C0        -507.1473  -360.0944   701.7582 C0            1 RES     
   34902 C0        -506.5535  -359.7096   700.4129 C0            1 RES     
   34903 C0        -505.6019  -358.7470   700.5535 C0            1 RES     
   34904 C0        -505.4875  -358.1997   701.8291 C0            1 RES     
   34905 S1        -506.6788  -358.8127   702.9890 S1            1 RES     
   34906 H2        -503.5129  -362.7215   700.7567 H2            1 RES     
   34907 H2        -504.8415  -358.5509   699.8154 H2            1 RES     
   34908 N3        -502.4235  -362.2987   706.5616 N3            1 RES     
   34909 C0        -503.1628  -362.1006   705.4596 C0            1 RES     
   34910 C0        -502.9658  -362.7546   704.1536 C0            1 RES     
   34911 C0        -501.8021  -363.6586   704.2669 C0            1 RES     
   34912 N3        -501.3042  -364.4360   703.2536 N3            1 RES     
   34913 S1        -500.0374  -365.2502   703.9661 S1            1 RES     
   34914 N3        -500.0202  -364.6790   705.5164 N3            1 RES     
   34915 C0        -501.0479  -363.8196   705.5122 C0            1 RES     
   34916 C0        -501.3543  -363.1354   706.6630 C0            1 RES     
   34917 H4        -503.9428  -361.3859   705.6011 H4            1 RES     
   34918 C5        -522.5418  -357.1314   689.1469 C5            1 RES     
   34919 C5        -521.3349  -357.6459   689.9819 C5            1 RES     
   34920 C5        -519.9554  -357.4880   689.2622 C5            1 RES     
   34921 C5        -518.6149  -357.6862   690.1238 C5            1 RES     
   34922 C5        -518.1333  -359.1293   690.5838 C5            1 RES     
   34923 C5        -516.8994  -359.3734   691.6770 C5            1 RES     
   34924 C5        -515.2715  -359.2372   691.4221 C5            1 RES     
   34925 C5        -513.9355  -359.8240   692.3972 C5            1 RES     
   34926 C5        -513.0557  -359.1866   693.7124 C5            1 RES     
   34927 C5        -511.7665  -359.6732   694.8721 C5            1 RES     
   34928 C5        -509.9886  -359.7176   694.9813 C5            1 RES     
   34929 C5        -509.6921  -359.8308   693.3773 C5            1 RES     
   34930 C5        -510.3464  -360.9923   692.4988 C5            1 RES     
   34931 C5        -510.4369  -360.7148   690.9358 C5            1 RES     
   34932 C5        -510.9129  -361.9264   690.0460 C5            1 RES     
   34933 C5        -510.1276  -363.2332   690.2926 C5            1 RES     
   34934 C5        -508.5923  -363.0852   690.1616 C5            1 RES     
   34935 C5        -507.9392  -363.8240   688.9877 C5            1 RES     
   34936 C5        -508.4303  -363.3935   687.6098 C5            1 RES     
   34937 C5        -508.5580  -359.9580   696.3217 C5            1 RES     
   34938 C0        -507.9411  -360.7515   698.0014 C0            1 RES     
   34939 C5        -508.6900  -362.1084   697.9678 C5            1 RES     
   34940 C5        -510.2095  -362.0764   697.4523 C5            1 RES     
   34941 C5        -511.2197  -361.7229   698.5573 C5            1 RES     
   34942 C5        -510.9389  -360.4602   699.4042 C5            1 RES     
   34943 C5        -510.7082  -359.1536   698.6141 C5            1 RES     
   34944 C5        -510.7746  -357.8831   699.4514 C5            1 RES     
   34945 C5        -509.8245  -357.9246   700.6488 C5            1 RES     
   34946 C5        -510.1002  -356.7575   701.5912 C5            1 RES     
   34947 C5        -509.3799  -356.9978   702.9110 C5            1 RES     
   34948 C5        -509.7608  -355.9950   703.9759 C5            1 RES     
   34949 C5        -510.5773  -363.3935   696.6877 C5            1 RES     
   34950 C5        -511.8061  -363.4826   695.7035 C5            1 RES     
   34951 C5        -513.2776  -363.5601   696.1942 C5            1 RES     
   34952 C5        -513.4936  -364.6880   697.2114 C5            1 RES     
   34953 C5        -514.9818  -365.0038   697.4833 C5            1 RES     
   34954 C5        -515.1633  -365.8591   698.7567 C5            1 RES     
   34955 C5        -514.4109  -367.2061   698.7819 C5            1 RES     
   34956 C5        -514.9038  -368.2584   697.7712 C5            1 RES     
   34957 C5        -516.3677  -368.7035   697.9590 C5            1 RES     
   34958 C5        -516.6439  -369.3246   699.3311 C5            1 RES     
   34959 H6        -522.4450  -356.0471   688.9105 H6            1 RES     
   34960 H6        -522.6692  -357.6856   688.1926 H6            1 RES     
   34961 H6        -523.4917  -357.2420   689.7231 H6            1 RES     
   34962 H6        -521.3332  -357.0406   690.9123 H6            1 RES     
   34963 H6        -521.5177  -358.7085   690.2403 H6            1 RES     
   34964 H6        -519.9581  -358.1003   688.3321 H6            1 RES     
   34965 H6        -519.9504  -356.4226   688.9290 H6            1 RES     
   34966 H6        -518.7401  -357.0445   691.0174 H6            1 RES     
   34967 H6        -517.7982  -357.2704   689.5002 H6            1 RES     
   34968 H6        -517.9849  -359.7429   689.6640 H6            1 RES     
   34969 H6        -519.0526  -359.5482   691.0587 H6            1 RES     
   34970 H6        -517.0442  -360.4510   691.9130 H6            1 RES     
   34971 H6        -517.1813  -358.7961   692.5744 H6            1 RES     
   34972 H6        -515.2023  -359.8439   690.4849 H6            1 RES     
   34973 H6        -515.0747  -358.1978   691.0880 H6            1 RES     
   34974 H6        -513.1833  -359.9366   691.5891 H6            1 RES     
   34975 H6        -514.2655  -360.8591   692.6303 H6            1 RES     
   34976 H6        -512.7745  -358.1739   693.3567 H6            1 RES     
   34977 H6        -513.9211  -359.0476   694.3919 H6            1 RES     
   34978 H6        -512.1312  -360.6468   695.2134 H6            1 RES     
   34979 H6        -512.0058  -358.9694   695.6802 H6            1 RES     
   34980 H6        -509.8373  -358.6149   694.9969 H6            1 RES     
   34981 H6        -508.6221  -359.6971   693.1202 H6            1 RES     
   34982 H6        -510.1891  -358.9314   692.9264 H6            1 RES     
   34983 H6        -511.3934  -361.1967   692.7983 H6            1 RES     
   34984 H6        -509.7505  -361.8989   692.6866 H6            1 RES     
   34985 H6        -509.4633  -360.3636   690.5550 H6            1 RES     
   34986 H6        -511.1319  -359.8714   690.7146 H6            1 RES     
   34987 H6        -510.8400  -361.6572   688.9644 H6            1 RES     
   34988 H6        -511.9889  -362.1465   690.2367 H6            1 RES     
   34989 H6        -510.3661  -363.5327   691.3319 H6            1 RES     
   34990 H6        -510.5047  -364.0768   689.6695 H6            1 RES     
   34991 H6        -508.2733  -362.0299   690.1412 H6            1 RES     
   34992 H6        -508.1433  -363.5176   691.0801 H6            1 RES     
   34993 H6        -508.1006  -364.9161   689.1048 H6            1 RES     
   34994 H6        -506.8457  -363.6265   689.0464 H6            1 RES     
   34995 H6        -508.2825  -362.3045   687.4572 H6            1 RES     
   34996 H6        -507.8459  -363.9433   686.8398 H6            1 RES     
   34997 H6        -509.5017  -363.6492   687.4791 H6            1 RES     
   34998 H6        -508.3424  -358.8890   696.5493 H6            1 RES     
   34999 H6        -507.7023  -360.1686   695.6459 H6            1 RES     
   35000 H6        -508.0735  -362.6975   697.2620 H6            1 RES     
   35001 H6        -508.6389  -362.5878   698.9651 H6            1 RES     
   35002 H6        -510.3594  -361.3415   696.6838 H6            1 RES     
   35003 H6        -512.2084  -361.5947   698.0820 H6            1 RES     
   35004 H6        -511.2835  -362.5756   699.2594 H6            1 RES     
   35005 H6        -511.8249  -360.3277   700.0595 H6            1 RES     
   35006 H6        -510.0557  -360.6627   700.0457 H6            1 RES     
   35007 H6        -509.7116  -359.1483   698.2188 H6            1 RES     
   35008 H6        -511.4374  -359.0628   697.7932 H6            1 RES     
   35009 H6        -510.5255  -357.0040   698.8125 H6            1 RES     
   35010 H6        -511.8202  -357.7820   699.8033 H6            1 RES     
   35011 H6        -510.0362  -358.8460   701.2234 H6            1 RES     
   35012 H6        -508.7586  -357.9464   700.3252 H6            1 RES     
   35013 H6        -509.7902  -355.7935   701.1306 H6            1 RES     
   35014 H6        -511.1900  -356.7316   701.8003 H6            1 RES     
   35015 H6        -508.3002  -356.9134   702.7282 H6            1 RES     
   35016 H6        -509.6428  -358.0116   703.2969 H6            1 RES     
   35017 H6        -509.4505  -354.9790   703.6617 H6            1 RES     
   35018 H6        -509.2420  -356.2679   704.9198 H6            1 RES     
   35019 H6        -510.8570  -356.0292   704.1470 H6            1 RES     
   35020 H6        -510.5754  -364.2504   697.3848 H6            1 RES     
   35021 H6        -509.7284  -363.5345   695.9807 H6            1 RES     
   35022 H6        -511.7345  -362.6993   694.9254 H6            1 RES     
   35023 H6        -511.6572  -364.4326   695.1455 H6            1 RES     
   35024 H6        -513.6382  -362.5962   696.6099 H6            1 RES     
   35025 H6        -513.9039  -363.7715   695.2937 H6            1 RES     
   35026 H6        -512.9978  -364.3656   698.1495 H6            1 RES     
   35027 H6        -513.0175  -365.6196   696.8385 H6            1 RES     
   35028 H6        -515.4373  -365.5046   696.5979 H6            1 RES     
   35029 H6        -515.5414  -364.0586   697.6555 H6            1 RES     
   35030 H6        -516.2445  -366.0266   698.9467 H6            1 RES     
   35031 H6        -514.7795  -365.2541   699.6063 H6            1 RES     
   35032 H6        -514.4899  -367.6302   699.8036 H6            1 RES     
   35033 H6        -513.3293  -367.0257   698.6134 H6            1 RES     
   35034 H6        -514.7753  -367.8683   696.7397 H6            1 RES     
   35035 H6        -514.2549  -369.1567   697.8720 H6            1 RES     
   35036 H6        -517.0556  -367.8486   697.7966 H6            1 RES     
   35037 H6        -516.5937  -369.4693   697.1854 H6            1 RES     
   35038 H6        -515.9780  -370.1967   699.5050 H6            1 RES     
   35039 H6        -516.4994  -368.5834   700.1436 H6            1 RES     
   35040 H6        -517.6983  -369.6696   699.3759 H6            1 RES     
   35041 C0        -498.2547  -361.4376   710.4689 C0            1 RES     
   35042 C0        -500.0050  -360.8849   710.6972 C0            1 RES     
   35043 C0        -500.8006  -362.0010   710.9230 C0            1 RES     
   35044 S1        -502.4978  -361.7448   710.8476 S1            1 RES     
   35045 C0        -502.6163  -360.1272   710.4949 C0            1 RES     
   35046 C0        -501.1075  -359.7497   710.4676 C0            1 RES     
   35047 C0        -500.1096  -363.2495   710.5986 C0            1 RES     
   35048 C0        -499.0218  -362.5949   709.7627 C0            1 RES     
   35049 C0        -499.3459  -362.6039   708.4410 C0            1 RES     
   35050 C0        -500.4818  -363.3378   708.1079 C0            1 RES     
   35051 S1        -501.2202  -364.1889   709.4756 S1            1 RES     
   35052 H2        -500.8698  -358.7394   710.1571 H2            1 RES     
   35053 H2        -498.9058  -361.9382   707.7167 H2            1 RES     
   35054 N3        -506.5499  -360.3842   709.8513 N3            1 RES     
   35055 C0        -505.2407  -360.6118   710.0371 C0            1 RES     
   35056 C0        -504.2035  -359.5865   710.2491 C0            1 RES     
   35057 C0        -504.8566  -358.2613   710.2087 C0            1 RES     
   35058 N3        -504.2148  -357.0594   710.3586 N3            1 RES     
   35059 S1        -505.4441  -355.9396   710.2574 S1            1 RES     
   35060 N3        -506.7953  -356.8555   710.0017 N3            1 RES     
   35061 C0        -506.2978  -358.0995   710.0027 C0            1 RES     
   35062 C0        -507.1485  -359.1618   709.8185 C0            1 RES     
   35063 H4        -504.9873  -361.6482   710.0082 H4            1 RES     
   35064 C5        -482.5593  -371.0332   716.6164 C5            1 RES     
   35065 C5        -483.8355  -370.1885   716.3404 C5            1 RES     
   35066 C5        -483.6382  -369.0822   715.2528 C5            1 RES     
   35067 C5        -484.9392  -368.3558   714.6544 C5            1 RES     
   35068 C5        -485.7505  -367.2830   715.5012 C5            1 RES     
   35069 C5        -487.2342  -366.6852   715.0340 C5            1 RES     
   35070 C5        -487.5572  -365.5652   713.8614 C5            1 RES     
   35071 C5        -489.0194  -364.6378   713.5753 C5            1 RES     
   35072 C5        -490.4503  -364.9200   712.6904 C5            1 RES     
   35073 C5        -492.0513  -364.1553   712.3805 C5            1 RES     
   35074 C5        -492.7905  -362.9520   711.2941 C5            1 RES     
   35075 C5        -491.4328  -362.0913   710.9949 C5            1 RES     
   35076 C5        -490.5633  -361.4836   712.1881 C5            1 RES     
   35077 C5        -489.0474  -361.1493   711.8434 C5            1 RES     
   35078 C5        -488.2384  -360.3839   712.9596 C5            1 RES     
   35079 C5        -488.9403  -359.1117   713.4830 C5            1 RES     
   35080 C5        -489.3429  -358.1079   712.3756 C5            1 RES     
   35081 C5        -488.6023  -356.7656   712.3776 C5            1 RES     
   35082 C5        -487.0921  -356.8695   712.1946 C5            1 RES     
   35083 C5        -494.5716  -362.3123   710.7289 C5            1 RES     
   35084 C0        -496.4593  -362.0034   711.1447 C0            1 RES     
   35085 C5        -496.3649  -361.6458   712.6502 C5            1 RES     
   35086 C5        -495.3445  -362.5162   713.5315 C5            1 RES     
   35087 C5        -495.9522  -363.8340   714.0420 C5            1 RES     
   35088 C5        -496.6447  -364.7494   713.0061 C5            1 RES     
   35089 C5        -495.8024  -365.1283   711.7685 C5            1 RES     
   35090 C5        -496.3615  -366.2825   710.9469 C5            1 RES     
   35091 C5        -497.8102  -366.0446   710.5193 C5            1 RES     
   35092 C5        -498.4074  -367.3149   709.9227 C5            1 RES     
   35093 C5        -499.9171  -367.1533   709.8077 C5            1 RES     
   35094 C5        -500.6144  -368.4365   709.4181 C5            1 RES     
   35095 C5        -494.7051  -361.6559   714.6743 C5            1 RES     
   35096 C5        -493.3736  -362.0798   715.4051 C5            1 RES     
   35097 C5        -493.3150  -363.2160   716.4622 C5            1 RES     
   35098 C5        -494.3454  -363.0230   717.5823 C5            1 RES     
   35099 C5        -494.1145  -363.9401   718.8045 C5            1 RES     
   35100 C5        -495.3528  -363.9894   719.7266 C5            1 RES     
   35101 C5        -495.8448  -362.6334   720.2746 C5            1 RES     
   35102 C5        -494.8943  -361.9360   721.2656 C5            1 RES     
   35103 C5        -494.6138  -362.7241   722.5605 C5            1 RES     
   35104 C5        -495.8745  -363.0221   723.3769 C5            1 RES     
   35105 H6        -482.2135  -371.5657   715.7010 H6            1 RES     
   35106 H6        -481.7163  -370.4213   717.0024 H6            1 RES     
   35107 H6        -482.7699  -371.8233   717.3767 H6            1 RES     
   35108 H6        -484.6042  -370.9099   715.9929 H6            1 RES     
   35109 H6        -484.1678  -369.7366   717.2969 H6            1 RES     
   35110 H6        -482.8705  -368.3572   715.6064 H6            1 RES     
   35111 H6        -483.1732  -369.6300   714.3985 H6            1 RES     
   35112 H6        -485.6233  -369.1735   714.3555 H6            1 RES     
   35113 H6        -484.5919  -367.8322   713.7411 H6            1 RES     
   35114 H6        -485.0462  -366.4577   715.7608 H6            1 RES     
   35115 H6        -485.9246  -367.8204   716.4641 H6            1 RES     
   35116 H6        -487.5615  -366.1896   715.9748 H6            1 RES     
   35117 H6        -487.8757  -367.5706   714.8844 H6            1 RES     
   35118 H6        -486.8076  -364.7920   714.1640 H6            1 RES     
   35119 H6        -487.1635  -365.9653   712.9044 H6            1 RES     
   35120 H6        -488.5579  -363.7571   713.0824 H6            1 RES     
   35121 H6        -489.2719  -364.2947   714.6015 H6            1 RES     
   35122 H6        -490.0707  -365.2375   711.6974 H6            1 RES     
   35123 H6        -490.7490  -365.8478   713.2196 H6            1 RES     
   35124 H6        -492.3821  -363.9143   713.3954 H6            1 RES     
   35125 H6        -492.6067  -365.0590   712.0967 H6            1 RES     
   35126 H6        -492.6938  -363.5509   710.3609 H6            1 RES     
   35127 H6        -491.5559  -361.3504   710.1797 H6            1 RES     
   35128 H6        -490.7057  -362.8344   710.5726 H6            1 RES     
   35129 H6        -490.4981  -362.1797   713.0477 H6            1 RES     
   35130 H6        -491.0838  -360.5722   712.5207 H6            1 RES     
   35131 H6        -488.9896  -360.5665   710.9090 H6            1 RES     
   35132 H6        -488.4704  -362.0763   711.6180 H6            1 RES     
   35133 H6        -487.2261  -360.1088   712.5760 H6            1 RES     
   35134 H6        -488.0648  -361.0501   713.8363 H6            1 RES     
   35135 H6        -489.8593  -359.4656   713.9901 H6            1 RES     
   35136 H6        -488.3574  -358.6088   714.2889 H6            1 RES     
   35137 H6        -489.2798  -358.5491   711.3671 H6            1 RES     
   35138 H6        -490.4146  -357.8637   712.5306 H6            1 RES     
   35139 H6        -488.8162  -356.2288   713.3254 H6            1 RES     
   35140 H6        -489.0156  -356.1644   711.5373 H6            1 RES     
   35141 H6        -486.8410  -357.4006   711.2533 H6            1 RES     
   35142 H6        -486.6714  -355.8411   712.1459 H6            1 RES     
   35143 H6        -486.6289  -357.3925   713.0561 H6            1 RES     
   35144 H6        -494.6985  -362.9235   709.8063 H6            1 RES     
   35145 H6        -494.2837  -361.3473   710.2608 H6            1 RES     
   35146 H6        -496.0208  -360.5942   712.6188 H6            1 RES     
   35147 H6        -497.3749  -361.6727   713.1043 H6            1 RES     
   35148 H6        -494.4723  -362.8019   712.9740 H6            1 RES     
   35149 H6        -495.1432  -364.4170   714.5166 H6            1 RES     
   35150 H6        -496.7048  -363.5956   714.8171 H6            1 RES     
   35151 H6        -496.9147  -365.6783   713.5504 H6            1 RES     
   35152 H6        -497.5807  -364.2523   712.6755 H6            1 RES     
   35153 H6        -495.7911  -364.3059   711.0807 H6            1 RES     
   35154 H6        -494.7722  -365.3840   712.0639 H6            1 RES     
   35155 H6        -495.7292  -366.4340   710.0413 H6            1 RES     
   35156 H6        -496.2995  -367.1897   711.5797 H6            1 RES     
   35157 H6        -498.4028  -365.8173   711.4254 H6            1 RES     
   35158 H6        -497.8937  -365.1839   709.8167 H6            1 RES     
   35159 H6        -497.9485  -367.5436   708.9354 H6            1 RES     
   35160 H6        -498.2091  -368.1527   710.6234 H6            1 RES     
   35161 H6        -500.1195  -366.4018   709.0328 H6            1 RES     
   35162 H6        -500.3311  -366.8336   710.7937 H6            1 RES     
   35163 H6        -500.2829  -368.7514   708.4091 H6            1 RES     
   35164 H6        -501.7105  -368.2546   709.4105 H6            1 RES     
   35165 H6        -500.3877  -369.2268   710.1639 H6            1 RES     
   35166 H6        -495.4771  -361.3681   715.4102 H6            1 RES     
   35167 H6        -494.3755  -360.7282   714.1538 H6            1 RES     
   35168 H6        -492.5640  -362.2412   714.6684 H6            1 RES     
   35169 H6        -493.0536  -361.1738   715.9644 H6            1 RES     
   35170 H6        -493.4264  -364.2235   716.0098 H6            1 RES     
   35171 H6        -492.2931  -363.1814   716.9121 H6            1 RES     
   35172 H6        -495.3390  -363.2308   717.1357 H6            1 RES     
   35173 H6        -494.3097  -361.9727   717.9417 H6            1 RES     
   35174 H6        -493.2105  -363.6114   719.3675 H6            1 RES     
   35175 H6        -493.9333  -364.9827   718.4634 H6            1 RES     
   35176 H6        -495.1689  -364.6921   720.5667 H6            1 RES     
   35177 H6        -496.1827  -364.4199   719.1258 H6            1 RES     
   35178 H6        -496.8228  -362.7930   720.7727 H6            1 RES     
   35179 H6        -496.0467  -361.9464   719.4272 H6            1 RES     
   35180 H6        -493.9299  -361.7174   720.7607 H6            1 RES     
   35181 H6        -495.3522  -360.9618   721.5476 H6            1 RES     
   35182 H6        -494.0917  -363.6750   722.3289 H6            1 RES     
   35183 H6        -493.9342  -362.1119   723.1924 H6            1 RES     
   35184 H6        -496.4019  -362.0796   723.6370 H6            1 RES     
   35185 H6        -496.5648  -363.6886   722.8204 H6            1 RES     
   35186 H6        -495.5926  -363.5412   724.3171 H6            1 RES     
   35187 C0        -511.5080  -359.5072   707.0167 C0            1 RES     
   35188 C0        -511.0140  -361.1363   707.7401 C0            1 RES     
   35189 C0        -511.1064  -361.0576   709.1239 C0            1 RES     
   35190 S1        -510.3953  -362.3519   710.0019 S1            1 RES     
   35191 C0        -509.7860  -363.3259   708.8038 C0            1 RES     
   35192 C0        -510.2407  -362.5231   707.5515 C0            1 RES     
   35193 C0        -511.2392  -359.6778   709.5933 C0            1 RES     
   35194 C0        -510.7567  -359.0422   708.2995 C0            1 RES     
   35195 C0        -509.4234  -358.7749   708.3513 C0            1 RES     
   35196 C0        -508.8220  -358.9658   709.5930 C0            1 RES     
   35197 S1        -509.9488  -359.4329   710.8785 S1            1 RES     
   35198 H2        -509.8877  -362.8853   706.5934 H2            1 RES     
   35199 H2        -508.8120  -358.6298   707.4757 H2            1 RES     
   35200 N3        -507.8326  -365.6170   711.4285 N3            1 RES     
   35201 C0        -508.5034  -364.6462   710.7896 C0            1 RES     
   35202 C0        -508.9144  -364.6625   709.3744 C0            1 RES     
   35203 C0        -508.4469  -365.9313   708.7780 C0            1 RES     
   35204 N3        -508.6337  -366.3068   707.4729 N3            1 RES     
   35205 S1        -507.9360  -367.8175   707.3925 S1            1 RES     
   35206 N3        -507.3568  -368.0689   708.9194 N3            1 RES     
   35207 C0        -507.7205  -366.9434   709.5485 C0            1 RES     
   35208 C0        -507.4070  -366.7864   710.8763 C0            1 RES     
   35209 H4        -508.7216  -363.8077   711.4129 H4            1 RES     
   35210 C5        -524.1924  -344.9643   705.0609 C5            1 RES     
   35211 C5        -523.3580  -346.2695   705.1983 C5            1 RES     
   35212 C5        -522.2592  -346.4358   704.0979 C5            1 RES     
   35213 C5        -521.1361  -347.5652   704.3016 C5            1 RES     
   35214 C5        -521.4689  -349.1071   704.1065 C5            1 RES     
   35215 C5        -520.4211  -350.3282   704.5405 C5            1 RES     
   35216 C5        -519.0570  -350.8277   703.7511 C5            1 RES     
   35217 C5        -518.1347  -352.3085   703.9429 C5            1 RES     
   35218 C5        -516.8519  -352.7848   704.9616 C5            1 RES     
   35219 C5        -515.8827  -354.2489   705.3627 C5            1 RES     
   35220 C5        -514.4377  -355.1172   704.7858 C5            1 RES     
   35221 C5        -514.5155  -354.6235   703.2289 C5            1 RES     
   35222 C5        -515.8347  -354.8493   702.3583 C5            1 RES     
   35223 C5        -516.0055  -353.8984   701.0954 C5            1 RES     
   35224 C5        -517.2085  -354.2370   700.1340 C5            1 RES     
   35225 C5        -517.2519  -355.7119   699.6779 C5            1 RES     
   35226 C5        -515.9369  -356.2164   699.0356 C5            1 RES     
   35227 C5        -516.0013  -356.5588   697.5426 C5            1 RES     
   35228 C5        -516.3847  -355.3940   696.6364 C5            1 RES     
   35229 C5        -513.1876  -356.5322   705.3656 C5            1 RES     
   35230 C0        -512.8542  -358.1696   706.3850 C0            1 RES     
   35231 C5        -514.2234  -358.8814   706.2371 C5            1 RES     
   35232 C5        -515.5293  -357.9563   706.3564 C5            1 RES     
   35233 C5        -515.9813  -357.7257   707.8087 C5            1 RES     
   35234 C5        -514.9162  -357.2421   708.8197 C5            1 RES     
   35235 C5        -514.1303  -355.9745   708.4194 C5            1 RES     
   35236 C5        -513.3459  -355.3271   709.5533 C5            1 RES     
   35237 C5        -512.4010  -356.3113   710.2436 C5            1 RES     
   35238 C5        -511.8281  -355.6989   711.5176 C5            1 RES     
   35239 C5        -511.1613  -356.7909   712.3431 C5            1 RES     
   35240 C5        -510.7458  -356.3143   713.7160 C5            1 RES     
   35241 C5        -516.6824  -358.4806   705.4343 C5            1 RES     
   35242 C5        -517.8933  -357.5698   704.9972 C5            1 RES     
   35243 C5        -519.0593  -357.1984   705.9534 C5            1 RES     
   35244 C5        -519.6978  -358.4341   706.6006 C5            1 RES     
   35245 C5        -521.0446  -358.1438   707.3006 C5            1 RES     
   35246 C5        -521.4627  -359.2962   708.2404 C5            1 RES     
   35247 C5        -521.5908  -360.6895   707.5897 C5            1 RES     
   35248 C5        -522.7388  -360.8427   706.5745 C5            1 RES     
   35249 C5        -524.1510  -360.6265   707.1536 C5            1 RES     
   35250 C5        -524.5008  -361.5985   708.2839 C5            1 RES     
   35251 H6        -523.5503  -344.0570   705.1334 H6            1 RES     
   35252 H6        -524.7567  -344.9159   704.1053 H6            1 RES     
   35253 H6        -524.9372  -344.8872   705.8892 H6            1 RES     
   35254 H6        -522.8719  -346.2120   706.1946 H6            1 RES     
   35255 H6        -524.0549  -347.1318   705.1834 H6            1 RES     
   35256 H6        -522.7500  -346.4984   703.1003 H6            1 RES     
   35257 H6        -521.7181  -345.4596   704.1136 H6            1 RES     
   35258 H6        -520.7394  -347.4070   705.3231 H6            1 RES     
   35259 H6        -520.3387  -347.3247   703.5702 H6            1 RES     
   35260 H6        -521.8353  -349.2420   703.0615 H6            1 RES     
   35261 H6        -522.3757  -349.2387   704.7441 H6            1 RES     
   35262 H6        -521.0988  -351.2090   704.4874 H6            1 RES     
   35263 H6        -520.1874  -350.1526   705.6047 H6            1 RES     
   35264 H6        -519.4870  -350.9145   702.7221 H6            1 RES     
   35265 H6        -518.3737  -349.9561   703.6873 H6            1 RES     
   35266 H6        -517.7124  -352.3693   702.9185 H6            1 RES     
   35267 H6        -518.9405  -353.0731   703.9685 H6            1 RES     
   35268 H6        -516.1180  -351.9617   704.8395 H6            1 RES     
   35269 H6        -517.3727  -352.5963   705.9224 H6            1 RES     
   35270 H6        -516.6655  -354.9983   705.5145 H6            1 RES     
   35271 H6        -515.5584  -353.9539   706.3694 H6            1 RES     
   35272 H6        -513.7005  -354.3316   705.0655 H6            1 RES     
   35273 H6        -513.6089  -354.8777   702.6441 H6            1 RES     
   35274 H6        -514.4953  -353.5027   703.2789 H6            1 RES     
   35275 H6        -516.7550  -354.6793   702.9514 H6            1 RES     
   35276 H6        -515.8204  -355.9025   702.0377 H6            1 RES     
   35277 H6        -515.0767  -353.8854   700.5010 H6            1 RES     
   35278 H6        -516.1410  -352.8359   701.4051 H6            1 RES     
   35279 H6        -517.1731  -353.5786   699.2324 H6            1 RES     
   35280 H6        -518.1787  -354.0180   700.6374 H6            1 RES     
   35281 H6        -517.4460  -356.3019   700.5950 H6            1 RES     
   35282 H6        -518.1274  -355.9259   699.0224 H6            1 RES     
   35283 H6        -515.0947  -355.5258   699.2075 H6            1 RES     
   35284 H6        -515.6626  -357.1599   699.5521 H6            1 RES     
   35285 H6        -516.7197  -357.3907   697.3867 H6            1 RES     
   35286 H6        -514.9893  -356.9140   697.2460 H6            1 RES     
   35287 H6        -515.6849  -354.5427   696.7652 H6            1 RES     
   35288 H6        -516.3357  -355.7384   695.5801 H6            1 RES     
   35289 H6        -517.4225  -355.0620   696.8444 H6            1 RES     
   35290 H6        -512.3825  -355.8955   705.7985 H6            1 RES     
   35291 H6        -512.7138  -356.7739   704.3907 H6            1 RES     
   35292 H6        -514.1596  -359.2991   705.2140 H6            1 RES     
   35293 H6        -514.2875  -359.7209   706.9570 H6            1 RES     
   35294 H6        -515.3676  -356.9757   705.9494 H6            1 RES     
   35295 H6        -516.7939  -356.9780   707.7944 H6            1 RES     
   35296 H6        -516.3933  -358.6742   708.2021 H6            1 RES     
   35297 H6        -515.4613  -357.0388   709.7650 H6            1 RES     
   35298 H6        -514.2042  -358.0751   708.9979 H6            1 RES     
   35299 H6        -513.3768  -356.2349   707.7025 H6            1 RES     
   35300 H6        -514.8072  -355.2168   707.9933 H6            1 RES     
   35301 H6        -512.7577  -354.4681   709.1546 H6            1 RES     
   35302 H6        -514.0875  -354.9430   710.2812 H6            1 RES     
   35303 H6        -512.9924  -357.1913   710.5594 H6            1 RES     
   35304 H6        -511.5944  -356.6553   709.5563 H6            1 RES     
   35305 H6        -511.1145  -354.8797   711.2781 H6            1 RES     
   35306 H6        -512.6703  -355.2903   712.1141 H6            1 RES     
   35307 H6        -510.2621  -357.1206   711.8057 H6            1 RES     
   35308 H6        -511.8761  -357.6363   712.4846 H6            1 RES     
   35309 H6        -509.9797  -355.5199   713.6207 H6            1 RES     
   35310 H6        -510.3220  -357.1757   714.2755 H6            1 RES     
   35311 H6        -511.6326  -355.9328   714.2639 H6            1 RES     
   35312 H6        -517.0441  -359.4591   705.7976 H6            1 RES     
   35313 H6        -516.1807  -358.6511   704.4548 H6            1 RES     
   35314 H6        -517.5254  -356.6451   704.5137 H6            1 RES     
   35315 H6        -518.3877  -358.1279   704.1725 H6            1 RES     
   35316 H6        -518.7529  -356.4727   706.7354 H6            1 RES     
   35317 H6        -519.8324  -356.6863   705.3306 H6            1 RES     
   35318 H6        -518.9637  -358.8188   707.3375 H6            1 RES     
   35319 H6        -519.8851  -359.2047   705.8230 H6            1 RES     
   35320 H6        -521.8363  -357.9394   706.5431 H6            1 RES     
   35321 H6        -520.9501  -357.2366   707.9363 H6            1 RES     
   35322 H6        -522.4082  -359.0337   708.7604 H6            1 RES     
   35323 H6        -520.6778  -359.3718   709.0234 H6            1 RES     
   35324 H6        -521.7266  -361.4393   708.3955 H6            1 RES     
   35325 H6        -520.6345  -360.9518   707.0922 H6            1 RES     
   35326 H6        -522.5830  -360.1371   705.7316 H6            1 RES     
   35327 H6        -522.6906  -361.8743   706.1599 H6            1 RES     
   35328 H6        -524.2650  -359.5843   707.5157 H6            1 RES     
   35329 H6        -524.8841  -360.7798   706.3319 H6            1 RES     
   35330 H6        -524.4125  -362.6496   707.9351 H6            1 RES     
   35331 H6        -523.8416  -361.4458   709.1629 H6            1 RES     
   35332 H6        -525.5461  -361.4216   708.6141 H6            1 RES     
   35333 C0        -503.3240  -368.5237   713.5756 C0            1 RES     
   35334 C0        -504.4105  -367.4213   714.5883 C0            1 RES     
   35335 C0        -505.6427  -368.0401   714.7567 C0            1 RES     
   35336 S1        -506.8990  -367.0574   715.3952 S1            1 RES     
   35337 C0        -506.1557  -365.5875   715.6010 C0            1 RES     
   35338 C0        -504.7186  -365.9476   715.1270 C0            1 RES     
   35339 C0        -505.8225  -369.1742   713.8493 C0            1 RES     
   35340 C0        -504.7052  -368.7729   712.8999 C0            1 RES     
   35341 C0        -505.1869  -368.0493   711.8528 C0            1 RES     
   35342 C0        -506.5748  -367.9716   711.7666 C0            1 RES     
   35343 S1        -507.4303  -368.9167   712.9976 S1            1 RES     
   35344 H2        -504.0142  -365.1272   715.0603 H2            1 RES     
   35345 H2        -504.5745  -367.4030   711.2456 H2            1 RES     
   35346 N3        -509.6141  -363.7645   716.4195 N3            1 RES     
   35347 C0        -508.6411  -364.6027   716.0306 C0            1 RES     
   35348 C0        -507.1917  -364.3560   716.1318 C0            1 RES     
   35349 C0        -506.9971  -363.0168   716.7259 C0            1 RES     
   35350 N3        -505.7827  -362.4301   716.9708 N3            1 RES     
   35351 S1        -506.1822  -360.9695   717.6653 S1            1 RES     
   35352 N3        -507.8345  -360.9729   717.6741 N3            1 RES     
   35353 C0        -508.1175  -362.1626   717.1268 C0            1 RES     
   35354 C0        -509.4306  -362.5329   716.9700 C0            1 RES     
   35355 H4        -509.0133  -365.5095   715.6081 H4            1 RES     
   35356 C5        -494.8380  -385.6664   710.3616 C5            1 RES     
   35357 C5        -495.4564  -384.3217   710.8391 C5            1 RES     
   35358 C5        -494.8564  -383.0632   710.1305 C5            1 RES     
   35359 C5        -495.6123  -381.6565   710.2985 C5            1 RES     
   35360 C5        -495.5444  -380.8385   711.6595 C5            1 RES     
   35361 C5        -496.4998  -379.5097   711.9734 C5            1 RES     
   35362 C5        -496.3309  -377.9730   711.3871 C5            1 RES     
   35363 C5        -497.0569  -376.4773   711.9489 C5            1 RES     
   35364 C5        -498.5239  -375.6719   711.6179 C5            1 RES     
   35365 C5        -499.4573  -374.2311   712.1627 C5            1 RES     
   35366 C5        -499.5683  -372.4840   711.8314 C5            1 RES     
   35367 C5        -498.0303  -372.2799   711.3149 C5            1 RES     
   35368 C5        -496.7920  -372.7206   712.2211 C5            1 RES     
   35369 C5        -495.4239  -372.9764   711.4522 C5            1 RES     
   35370 C5        -494.1599  -373.2332   712.3591 C5            1 RES     
   35371 C5        -493.9440  -372.1644   713.4527 C5            1 RES     
   35372 C5        -493.8941  -370.7121   712.9195 C5            1 RES     
   35373 C5        -492.5448  -369.9939   713.0384 C5            1 RES     
   35374 C5        -491.3984  -370.6605   712.2860 C5            1 RES     
   35375 C5        -500.7590  -370.9476   712.1815 C5            1 RES     
   35376 C0        -502.0628  -370.0579   713.3392 C0            1 RES     
   35377 C5        -501.5461  -370.4900   714.7354 C5            1 RES     
   35378 C5        -501.0538  -372.0107   714.8790 C5            1 RES     
   35379 C5        -502.1987  -372.9963   715.1694 C5            1 RES     
   35380 C5        -503.4379  -372.9435   714.2463 C5            1 RES     
   35381 C5        -503.1584  -373.0607   712.7320 C5            1 RES     
   35382 C5        -504.3866  -373.3481   711.8783 C5            1 RES     
   35383 C5        -505.5065  -372.3329   712.1090 C5            1 RES     
   35384 C5        -506.7940  -372.7939   711.4337 C5            1 RES     
   35385 C5        -507.9558  -371.9501   711.9403 C5            1 RES     
   35386 C5        -509.2991  -372.4691   711.4809 C5            1 RES     
   35387 C5        -499.8715  -372.1306   715.9000 C5            1 RES     
   35388 C5        -498.9018  -373.3738   715.9258 C5            1 RES     
   35389 C5        -499.3142  -374.7550   716.5037 C5            1 RES     
   35390 C5        -499.8691  -374.6474   717.9299 C5            1 RES     
   35391 C5        -499.9929  -376.0074   718.6534 C5            1 RES     
   35392 C5        -500.8837  -375.9087   719.9115 C5            1 RES     
   35393 C5        -500.4460  -374.8782   720.9734 C5            1 RES     
   35394 C5        -499.1242  -375.1949   721.6976 C5            1 RES     
   35395 C5        -499.1243  -376.5085   722.5044 C5            1 RES     
   35396 C5        -500.1882  -376.5468   723.6050 C5            1 RES     
   35397 H6        -494.9975  -385.8272   709.2709 H6            1 RES     
   35398 H6        -493.7484  -385.7333   710.5676 H6            1 RES     
   35399 H6        -495.3260  -386.5270   710.8791 H6            1 RES     
   35400 H6        -496.5398  -384.3900   710.6075 H6            1 RES     
   35401 H6        -495.3238  -384.2478   711.9375 H6            1 RES     
   35402 H6        -493.7709  -382.9944   710.3689 H6            1 RES     
   35403 H6        -494.9173  -383.3159   709.0449 H6            1 RES     
   35404 H6        -496.6722  -381.8588   710.0502 H6            1 RES     
   35405 H6        -495.1849  -380.9960   709.5176 H6            1 RES     
   35406 H6        -494.4702  -380.6217   711.8679 H6            1 RES     
   35407 H6        -495.8301  -381.6084   712.4158 H6            1 RES     
   35408 H6        -496.3415  -379.3970   713.0689 H6            1 RES     
   35409 H6        -497.5385  -379.8499   711.8211 H6            1 RES     
   35410 H6        -495.2416  -377.8359   711.6013 H6            1 RES     
   35411 H6        -496.3845  -378.0333   710.2806 H6            1 RES     
   35412 H6        -496.2708  -375.7756   711.6005 H6            1 RES     
   35413 H6        -496.9084  -376.5544   713.0473 H6            1 RES     
   35414 H6        -498.5491  -375.6457   710.5090 H6            1 RES     
   35415 H6        -499.1972  -376.4983   711.9241 H6            1 RES     
   35416 H6        -499.4311  -374.3483   713.2504 H6            1 RES     
   35417 H6        -500.4573  -374.5639   711.8548 H6            1 RES     
   35418 H6        -499.9710  -372.5787   710.7980 H6            1 RES     
   35419 H6        -497.8509  -371.2857   710.8586 H6            1 RES     
   35420 H6        -497.9161  -372.9924   710.4556 H6            1 RES     
   35421 H6        -496.9867  -373.6739   712.7512 H6            1 RES     
   35422 H6        -496.6586  -371.9282   712.9739 H6            1 RES     
   35423 H6        -495.2035  -372.1324   710.7775 H6            1 RES     
   35424 H6        -495.5026  -373.8535   710.7683 H6            1 RES     
   35425 H6        -493.2421  -373.2954   711.7255 H6            1 RES     
   35426 H6        -494.2468  -374.2188   712.8726 H6            1 RES     
   35427 H6        -494.8094  -372.2597   714.1375 H6            1 RES     
   35428 H6        -493.0600  -372.3880   714.0935 H6            1 RES     
   35429 H6        -494.2488  -370.6355   711.8784 H6            1 RES     
   35430 H6        -494.6092  -370.1173   713.5255 H6            1 RES     
   35431 H6        -492.2700  -369.9023   714.1101 H6            1 RES     
   35432 H6        -492.6839  -368.9693   712.6270 H6            1 RES     
   35433 H6        -491.6387  -370.7670   711.2080 H6            1 RES     
   35434 H6        -490.4926  -370.0232   712.3874 H6            1 RES     
   35435 H6        -491.1718  -371.6556   712.7205 H6            1 RES     
   35436 H6        -501.3494  -370.9578   711.2369 H6            1 RES     
   35437 H6        -500.0640  -370.1146   711.9440 H6            1 RES     
   35438 H6        -500.6872  -369.8085   714.8873 H6            1 RES     
   35439 H6        -502.3131  -370.2667   715.5029 H6            1 RES     
   35440 H6        -500.5893  -372.3709   713.9802 H6            1 RES     
   35441 H6        -501.7850  -374.0189   715.1170 H6            1 RES     
   35442 H6        -502.5570  -372.8226   716.2017 H6            1 RES     
   35443 H6        -504.0859  -373.7901   714.5548 H6            1 RES     
   35444 H6        -503.9798  -371.9957   714.4477 H6            1 RES     
   35445 H6        -502.8036  -372.1191   712.3620 H6            1 RES     
   35446 H6        -502.4114  -373.8463   712.5351 H6            1 RES     
   35447 H6        -504.0994  -373.3430   710.8011 H6            1 RES     
   35448 H6        -504.7373  -374.3638   712.1480 H6            1 RES     
   35449 H6        -505.7192  -372.2967   713.1940 H6            1 RES     
   35450 H6        -505.2103  -371.3129   711.7722 H6            1 RES     
   35451 H6        -506.7043  -372.7361   710.3264 H6            1 RES     
   35452 H6        -506.9841  -373.8459   711.7329 H6            1 RES     
   35453 H6        -507.8289  -370.9307   711.5520 H6            1 RES     
   35454 H6        -507.9587  -371.9564   713.0563 H6            1 RES     
   35455 H6        -509.3647  -372.4125   710.3765 H6            1 RES     
   35456 H6        -510.0947  -371.8398   711.9344 H6            1 RES     
   35457 H6        -509.4325  -373.5166   711.8232 H6            1 RES     
   35458 H6        -500.2244  -371.8924   716.9193 H6            1 RES     
   35459 H6        -499.1715  -371.3218   715.5900 H6            1 RES     
   35460 H6        -498.4482  -373.5298   714.9288 H6            1 RES     
   35461 H6        -498.0486  -373.0576   716.5646 H6            1 RES     
   35462 H6        -500.0361  -375.2900   715.8521 H6            1 RES     
   35463 H6        -498.3882  -375.3794   716.5309 H6            1 RES     
   35464 H6        -500.8674  -374.1720   717.8446 H6            1 RES     
   35465 H6        -499.2002  -374.0043   718.5403 H6            1 RES     
   35466 H6        -498.9821  -376.4007   718.9100 H6            1 RES     
   35467 H6        -500.4775  -376.7484   717.9809 H6            1 RES     
   35468 H6        -500.9883  -376.9109   720.3783 H6            1 RES     
   35469 H6        -501.8964  -375.6107   719.5644 H6            1 RES     
   35470 H6        -501.2533  -374.7919   721.7289 H6            1 RES     
   35471 H6        -500.3660  -373.8769   720.5023 H6            1 RES     
   35472 H6        -498.2964  -375.2260   720.9584 H6            1 RES     
   35473 H6        -498.9129  -374.3587   722.4007 H6            1 RES     
   35474 H6        -499.2621  -377.3773   721.8286 H6            1 RES     
   35475 H6        -498.1286  -376.6123   722.9878 H6            1 RES     
   35476 H6        -500.0548  -375.6949   724.3055 H6            1 RES     
   35477 H6        -501.2107  -376.5140   723.1761 H6            1 RES     
   35478 H6        -500.0950  -377.4937   724.1772 H6            1 RES     
   35479 C0        -513.6320  -359.6314   716.0186 C0            1 RES     
   35480 C0        -514.0154  -361.4408   715.9967 C0            1 RES     
   35481 C0        -513.8254  -361.9536   717.2737 C0            1 RES     
   35482 S1        -513.8212  -363.6666   717.4052 S1            1 RES     
   35483 C0        -514.0556  -364.1624   715.8385 C0            1 RES     
   35484 C0        -514.1828  -362.7793   715.1382 C0            1 RES     
   35485 C0        -513.0938  -361.0283   718.1398 C0            1 RES     
   35486 C0        -512.5549  -360.1710   717.0061 C0            1 RES     
   35487 C0        -511.3094  -360.5745   716.6347 C0            1 RES     
   35488 C0        -510.7250  -361.5408   717.4499 C0            1 RES     
   35489 S1        -511.6980  -361.9785   718.8648 S1            1 RES     
   35490 H2        -514.2489  -362.7917   714.0569 H2            1 RES     
   35491 H2        -510.8701  -360.3423   715.6784 H2            1 RES     
   35492 N3        -513.3092  -367.9772   716.7570 N3            1 RES     
   35493 C0        -513.4214  -366.6405   716.7266 C0            1 RES     
   35494 C0        -513.9931  -365.8426   715.6272 C0            1 RES     
   35495 C0        -514.4103  -366.7729   714.5572 C0            1 RES     
   35496 N3        -514.9802  -366.4029   713.3667 N3            1 RES     
   35497 S1        -515.2606  -367.8527   712.5954 S1            1 RES     
   35498 N3        -514.6821  -368.9831   713.6525 N3            1 RES     
   35499 C0        -514.2544  -368.2249   714.6709 C0            1 RES     
   35500 C0        -513.6983  -368.8312   715.7706 C0            1 RES     
   35501 H4        -513.0349  -366.1675   717.6019 H4            1 RES     
   35502 C5        -516.2443  -341.8259   723.2542 C5            1 RES     
   35503 C5        -516.2642  -343.2727   722.6841 C5            1 RES     
   35504 C5        -515.6355  -343.3985   721.2576 C5            1 RES     
   35505 C5        -515.3116  -344.8653   720.6901 C5            1 RES     
   35506 C5        -516.4693  -345.8333   720.1912 C5            1 RES     
   35507 C5        -516.2208  -347.4406   719.8279 C5            1 RES     
   35508 C5        -515.5101  -348.0816   718.4797 C5            1 RES     
   35509 C5        -515.5469  -349.7282   717.8736 C5            1 RES     
   35510 C5        -514.5999  -351.1187   718.1559 C5            1 RES     
   35511 C5        -514.5555  -352.8661   717.7217 C5            1 RES     
   35512 C5        -513.9492  -353.9246   716.4230 C5            1 RES     
   35513 C5        -513.9887  -352.8135   715.2240 C5            1 RES     
   35514 C5        -515.3309  -352.0199   714.8806 C5            1 RES     
   35515 C5        -515.1458  -350.6421   714.1089 C5            1 RES     
   35516 C5        -516.4702  -349.9474   713.6093 C5            1 RES     
   35517 C5        -517.3963  -350.8749   712.7926 C5            1 RES     
   35518 C5        -516.7050  -351.5634   711.5908 C5            1 RES     
   35519 C5        -517.1869  -351.1383   710.1988 C5            1 RES     
   35520 C5        -516.9997  -349.6584   709.8829 C5            1 RES     
   35521 C5        -513.6195  -355.8371   716.0564 C5            1 RES     
   35522 C0        -514.0913  -357.7136   716.3526 C0            1 RES     
   35523 C5        -515.6278  -357.5979   716.5227 C5            1 RES     
   35524 C5        -516.1625  -356.3532   717.3831 C5            1 RES     
   35525 C5        -516.1709  -356.6193   718.8982 C5            1 RES     
   35526 C5        -514.8708  -357.1622   719.5351 C5            1 RES     
   35527 C5        -513.5905  -356.3435   719.2608 C5            1 RES     
   35528 C5        -512.4092  -356.6893   720.1580 C5            1 RES     
   35529 C5        -512.0723  -358.1805   720.1279 C5            1 RES     
   35530 C5        -511.0606  -358.5224   721.2169 C5            1 RES     
   35531 C5        -510.9890  -360.0348   721.3778 C5            1 RES     
   35532 C5        -510.1653  -360.4572   722.5728 C5            1 RES     
   35533 C5        -517.5427  -355.8427   716.8454 C5            1 RES     
   35534 C5        -518.0970  -354.4038   717.1759 C5            1 RES     
   35535 C5        -518.6901  -354.0244   718.5602 C5            1 RES     
   35536 C5        -519.7927  -354.9931   719.0066 C5            1 RES     
   35537 C5        -520.6195  -354.4831   720.2085 C5            1 RES     
   35538 C5        -521.4490  -355.6143   720.8553 C5            1 RES     
   35539 C5        -522.4303  -356.3544   719.9224 C5            1 RES     
   35540 C5        -523.6156  -355.5156   719.4092 C5            1 RES     
   35541 C5        -524.5563  -354.9807   720.5071 C5            1 RES     
   35542 C5        -525.1995  -356.0861   721.3493 C5            1 RES     
   35543 H6        -515.2053  -341.4345   723.3447 H6            1 RES     
   35544 H6        -516.8316  -341.1141   722.6356 H6            1 RES     
   35545 H6        -516.6770  -341.8049   724.2832 H6            1 RES     
   35546 H6        -515.6756  -343.8854   723.3984 H6            1 RES     
   35547 H6        -517.3137  -343.6303   722.6778 H6            1 RES     
   35548 H6        -516.2310  -342.7872   720.5424 H6            1 RES     
   35549 H6        -514.6499  -342.8837   721.3558 H6            1 RES     
   35550 H6        -514.7360  -345.3712   721.4893 H6            1 RES     
   35551 H6        -514.6443  -344.7050   719.8196 H6            1 RES     
   35552 H6        -517.0109  -345.3121   719.3669 H6            1 RES     
   35553 H6        -517.1806  -345.8187   721.0515 H6            1 RES     
   35554 H6        -517.2710  -347.8041   719.7754 H6            1 RES     
   35555 H6        -515.7619  -347.8800   720.7304 H6            1 RES     
   35556 H6        -516.0745  -347.5019   717.7072 H6            1 RES     
   35557 H6        -514.4792  -347.6756   718.4244 H6            1 RES     
   35558 H6        -515.4000  -349.5068   716.7961 H6            1 RES     
   35559 H6        -516.6248  -349.9795   717.9720 H6            1 RES     
   35560 H6        -513.5638  -350.7471   718.0163 H6            1 RES     
   35561 H6        -514.7666  -351.1688   719.2512 H6            1 RES     
   35562 H6        -515.5859  -353.1719   717.9273 H6            1 RES     
   35563 H6        -513.9657  -353.2268   718.5747 H6            1 RES     
   35564 H6        -512.8667  -353.7622   716.6253 H6            1 RES     
   35565 H6        -513.4829  -353.1521   714.2976 H6            1 RES     
   35566 H6        -513.3429  -351.9711   715.5880 H6            1 RES     
   35567 H6        -515.8932  -351.7445   715.7947 H6            1 RES     
   35568 H6        -515.9544  -352.7045   714.2850 H6            1 RES     
   35569 H6        -514.4754  -350.7780   713.2438 H6            1 RES     
   35570 H6        -514.6179  -349.8917   714.7425 H6            1 RES     
   35571 H6        -516.2210  -349.0491   712.9940 H6            1 RES     
   35572 H6        -517.0605  -349.5719   714.4772 H6            1 RES     
   35573 H6        -517.7348  -351.6566   713.5006 H6            1 RES     
   35574 H6        -518.3351  -350.3637   712.4774 H6            1 RES     
   35575 H6        -515.6068  -351.4735   711.6313 H6            1 RES     
   35576 H6        -516.9211  -352.6494   711.6684 H6            1 RES     
   35577 H6        -518.2597  -351.4000   710.0851 H6            1 RES     
   35578 H6        -516.6048  -351.7302   709.4579 H6            1 RES     
   35579 H6        -515.9356  -349.3613   709.9852 H6            1 RES     
   35580 H6        -517.3199  -349.4790   708.8331 H6            1 RES     
   35581 H6        -517.6299  -349.0337   710.5485 H6            1 RES     
   35582 H6        -512.5396  -355.8889   716.3250 H6            1 RES     
   35583 H6        -513.5228  -355.8015   714.9506 H6            1 RES     
   35584 H6        -515.9713  -357.4969   715.4753 H6            1 RES     
   35585 H6        -516.0300  -358.5438   716.9357 H6            1 RES     
   35586 H6        -515.5522  -355.4795   717.2509 H6            1 RES     
   35587 H6        -516.4224  -355.6713   719.4059 H6            1 RES     
   35588 H6        -516.9701  -357.3514   719.1208 H6            1 RES     
   35589 H6        -515.0517  -357.1831   720.6300 H6            1 RES     
   35590 H6        -514.7224  -358.2050   719.1844 H6            1 RES     
   35591 H6        -513.2344  -356.5605   718.2731 H6            1 RES     
   35592 H6        -513.7917  -355.2646   719.3579 H6            1 RES     
   35593 H6        -511.5166  -356.1024   719.8391 H6            1 RES     
   35594 H6        -512.6852  -356.3859   721.1871 H6            1 RES     
   35595 H6        -512.9924  -358.7455   720.3688 H6            1 RES     
   35596 H6        -511.7144  -358.4993   719.1221 H6            1 RES     
   35597 H6        -510.0621  -358.0928   720.9802 H6            1 RES     
   35598 H6        -511.4263  -358.0971   722.1748 H6            1 RES     
   35599 H6        -510.5235  -360.4502   720.4740 H6            1 RES     
   35600 H6        -512.0187  -360.4409   721.5210 H6            1 RES     
   35601 H6        -509.1145  -360.1341   722.4363 H6            1 RES     
   35602 H6        -510.2069  -361.5644   722.6568 H6            1 RES     
   35603 H6        -510.5902  -360.0117   723.4964 H6            1 RES     
   35604 H6        -518.3222  -356.6070   717.0140 H6            1 RES     
   35605 H6        -517.3846  -355.7618   715.7460 H6            1 RES     
   35606 H6        -517.3615  -353.6307   716.8834 H6            1 RES     
   35607 H6        -518.9423  -354.2539   716.4697 H6            1 RES     
   35608 H6        -517.9122  -353.9417   719.3476 H6            1 RES     
   35609 H6        -519.1375  -353.0070   718.4480 H6            1 RES     
   35610 H6        -519.2881  -355.9446   719.2711 H6            1 RES     
   35611 H6        -520.4975  -355.1653   718.1657 H6            1 RES     
   35612 H6        -521.2743  -353.6375   719.8946 H6            1 RES     
   35613 H6        -519.9375  -354.1003   720.9988 H6            1 RES     
   35614 H6        -521.9923  -355.2233   721.7415 H6            1 RES     
   35615 H6        -520.7243  -356.3679   721.2319 H6            1 RES     
   35616 H6        -522.8276  -357.2369   720.4639 H6            1 RES     
   35617 H6        -521.8744  -356.7600   719.0521 H6            1 RES     
   35618 H6        -523.2324  -354.6598   718.8146 H6            1 RES     
   35619 H6        -524.2145  -356.1565   718.7245 H6            1 RES     
   35620 H6        -524.0136  -354.2790   721.1731 H6            1 RES     
   35621 H6        -525.3717  -354.4112   720.0104 H6            1 RES     
   35622 H6        -525.7659  -356.7893   720.7019 H6            1 RES     
   35623 H6        -524.4355  -356.6489   721.9237 H6            1 RES     
   35624 H6        -525.9021  -355.6334   722.0801 H6            1 RES     
   35625 C0        -510.8937  -373.1881   716.1258 C0            1 RES     
   35626 C0        -511.0077  -372.2992   717.7438 C0            1 RES     
   35627 C0        -512.3300  -372.3121   718.1690 C0            1 RES     
   35628 S1        -512.7089  -371.2752   719.4854 S1            1 RES     
   35629 C0        -511.2541  -370.5494   719.8202 C0            1 RES     
   35630 C0        -510.3560  -371.2541   718.7636 C0            1 RES     
   35631 C0        -513.2509  -372.7133   717.1047 C0            1 RES     
   35632 C0        -512.2683  -372.4720   715.9704 C0            1 RES     
   35633 C0        -512.4285  -371.2300   715.4378 C0            1 RES     
   35634 C0        -513.5328  -370.5181   715.8999 C0            1 RES     
   35635 S1        -514.5580  -371.4240   717.0263 S1            1 RES     
   35636 H2        -509.3367  -370.8961   718.6829 H2            1 RES     
   35637 H2        -511.6676  -370.7268   714.8640 H2            1 RES     
   35638 N3        -512.9370  -367.9650   722.3584 N3            1 RES     
   35639 C0        -512.6693  -368.8751   721.4095 C0            1 RES     
   35640 C0        -511.3325  -369.3679   721.0325 C0            1 RES     
   35641 C0        -510.3360  -368.6742   721.8751 C0            1 RES     
   35642 N3        -508.9797  -368.8622   721.8114 N3            1 RES     
   35643 S1        -508.3850  -367.8560   722.9986 S1            1 RES     
   35644 N3        -509.7349  -367.1329   723.6189 N3            1 RES     
   35645 C0        -510.7133  -367.6918   722.8941 C0            1 RES     
   35646 C0        -512.0162  -367.3308   723.1353 C0            1 RES     
   35647 H4        -513.5436  -369.2297   720.9104 H4            1 RES     
   35648 C5        -513.9804  -388.8679   705.1334 C5            1 RES     
   35649 C5        -513.6636  -387.7590   706.1768 C5            1 RES     
   35650 C5        -512.5896  -386.7283   705.6971 C5            1 RES     
   35651 C5        -512.4003  -385.3727   706.5368 C5            1 RES     
   35652 C5        -511.6733  -385.3701   707.9502 C5            1 RES     
   35653 C5        -511.6666  -384.0520   708.9698 C5            1 RES     
   35654 C5        -510.7709  -382.6684   708.8393 C5            1 RES     
   35655 C5        -510.4447  -381.4317   710.0410 C5            1 RES     
   35656 C5        -511.2495  -380.0091   710.5294 C5            1 RES     
   35657 C5        -511.1259  -378.7161   711.7772 C5            1 RES     
   35658 C5        -510.3012  -377.1581   712.0368 C5            1 RES     
   35659 C5        -509.0148  -377.4488   711.0702 C5            1 RES     
   35660 C5        -508.1024  -378.7420   711.2802 C5            1 RES     
   35661 C5        -507.2501  -379.2037   710.0198 C5            1 RES     
   35662 C5        -506.2147  -380.3653   710.2746 C5            1 RES     
   35663 C5        -505.2706  -380.1137   711.4706 C5            1 RES     
   35664 C5        -504.5103  -378.7669   711.4064 C5            1 RES     
   35665 C5        -502.9912  -378.8559   711.2200 C5            1 RES     
   35666 C5        -502.5450  -379.5474   709.9364 C5            1 RES     
   35667 C5        -510.3659  -375.5905   713.2364 C5            1 RES     
   35668 C0        -510.7520  -374.8358   715.0008 C0            1 RES     
   35669 C5        -510.3456  -376.0213   715.9132 C5            1 RES     
   35670 C5        -510.7634  -377.4877   715.4126 C5            1 RES     
   35671 C5        -512.1982  -377.8793   715.8058 C5            1 RES     
   35672 C5        -513.3290  -376.8806   715.4678 C5            1 RES     
   35673 C5        -513.4086  -376.4223   713.9952 C5            1 RES     
   35674 C5        -514.7079  -375.7244   713.6149 C5            1 RES     
   35675 C5        -515.0228  -374.5411   714.5307 C5            1 RES     
   35676 C5        -516.4382  -374.0317   714.2790 C5            1 RES     
   35677 C5        -516.8382  -373.0860   715.4034 C5            1 RES     
   35678 C5        -518.2966  -372.6931   715.3457 C5            1 RES     
   35679 C5        -509.7005  -378.5571   715.8385 C5            1 RES     
   35680 C5        -509.5934  -379.9658   715.1378 C5            1 RES     
   35681 C5        -510.6032  -381.1170   715.3968 C5            1 RES     
   35682 C5        -510.7680  -381.4219   716.8912 C5            1 RES     
   35683 C5        -511.5069  -382.7487   717.1775 C5            1 RES     
   35684 C5        -511.9780  -382.8376   718.6459 C5            1 RES     
   35685 C5        -510.8790  -382.6996   719.7203 C5            1 RES     
   35686 C5        -509.8589  -383.8521   719.7752 C5            1 RES     
   35687 C5        -510.4577  -385.2344   720.1025 C5            1 RES     
   35688 C5        -511.1714  -385.2836   721.4564 C5            1 RES     
   35689 H6        -514.3748  -388.4380   704.1844 H6            1 RES     
   35690 H6        -513.0946  -389.4928   704.8908 H6            1 RES     
   35691 H6        -514.7731  -389.5531   705.5192 H6            1 RES     
   35692 H6        -514.6234  -387.2308   706.3549 H6            1 RES     
   35693 H6        -513.3383  -388.2482   707.1171 H6            1 RES     
   35694 H6        -511.6267  -387.2600   705.5242 H6            1 RES     
   35695 H6        -512.9535  -386.4157   704.6891 H6            1 RES     
   35696 H6        -513.4179  -384.9519   706.6525 H6            1 RES     
   35697 H6        -511.8103  -384.6996   705.8829 H6            1 RES     
   35698 H6        -510.6423  -385.7682   707.7982 H6            1 RES     
   35699 H6        -512.2120  -386.1801   708.4978 H6            1 RES     
   35700 H6        -511.2992  -384.5210   709.9094 H6            1 RES     
   35701 H6        -512.7280  -383.7907   709.1219 H6            1 RES     
   35702 H6        -509.7709  -383.1379   708.6637 H6            1 RES     
   35703 H6        -511.0256  -382.2000   707.8664 H6            1 RES     
   35704 H6        -509.4697  -381.0772   709.6471 H6            1 RES     
   35705 H6        -510.1900  -382.0456   710.9315 H6            1 RES     
   35706 H6        -511.4334  -379.4846   709.5691 H6            1 RES     
   35707 H6        -512.2084  -380.4918   710.8079 H6            1 RES     
   35708 H6        -510.9950  -379.3024   712.6918 H6            1 RES     
   35709 H6        -512.1764  -378.3969   711.7798 H6            1 RES     
   35710 H6        -510.8483  -376.5948   711.2479 H6            1 RES     
   35711 H6        -508.3904  -376.5504   710.8918 H6            1 RES     
   35712 H6        -509.4543  -377.6726   710.0622 H6            1 RES     
   35713 H6        -508.7048  -379.6345   711.5411 H6            1 RES     
   35714 H6        -507.4335  -378.5179   712.1256 H6            1 RES     
   35715 H6        -506.7105  -378.3434   709.5899 H6            1 RES     
   35716 H6        -507.9103  -379.5487   709.1900 H6            1 RES     
   35717 H6        -505.6012  -380.5374   709.3572 H6            1 RES     
   35718 H6        -506.7496  -381.3233   710.4715 H6            1 RES     
   35719 H6        -505.9203  -380.1101   712.3676 H6            1 RES     
   35720 H6        -504.5697  -380.9632   711.6417 H6            1 RES     
   35721 H6        -504.9245  -378.0878   710.6429 H6            1 RES     
   35722 H6        -504.6674  -378.2568   712.3798 H6            1 RES     
   35723 H6        -502.5441  -379.3822   712.0892 H6            1 RES     
   35724 H6        -502.6028  -377.8131   711.2084 H6            1 RES     
   35725 H6        -502.9731  -379.0451   709.0444 H6            1 RES     
   35726 H6        -501.4357  -379.4958   709.8756 H6            1 RES     
   35727 H6        -502.8418  -380.6161   709.9444 H6            1 RES     
   35728 H6        -511.0053  -374.9178   712.6202 H6            1 RES     
   35729 H6        -509.3747  -375.1427   713.0124 H6            1 RES     
   35730 H6        -509.2420  -375.9370   715.9272 H6            1 RES     
   35731 H6        -510.7251  -375.8497   716.9396 H6            1 RES     
   35732 H6        -510.7278  -377.5742   714.3428 H6            1 RES     
   35733 H6        -512.4356  -378.8357   715.3072 H6            1 RES     
   35734 H6        -512.2290  -378.0445   716.8994 H6            1 RES     
   35735 H6        -514.2781  -377.3913   715.7330 H6            1 RES     
   35736 H6        -513.2140  -375.9921   716.1235 H6            1 RES     
   35737 H6        -512.6563  -375.6807   713.8124 H6            1 RES     
   35738 H6        -513.2655  -377.2770   713.3148 H6            1 RES     
   35739 H6        -514.6432  -375.3686   712.5604 H6            1 RES     
   35740 H6        -515.5141  -376.4810   713.6861 H6            1 RES     
   35741 H6        -515.0025  -374.9012   715.5765 H6            1 RES     
   35742 H6        -514.2696  -373.7273   714.4219 H6            1 RES     
   35743 H6        -516.5105  -373.5341   713.2866 H6            1 RES     
   35744 H6        -517.1286  -374.9005   714.3059 H6            1 RES     
   35745 H6        -516.2317  -372.1750   715.3119 H6            1 RES     
   35746 H6        -516.6650  -373.5857   716.3863 H6            1 RES     
   35747 H6        -518.4959  -372.1291   714.4133 H6            1 RES     
   35748 H6        -518.5249  -372.0528   716.2247 H6            1 RES     
   35749 H6        -518.9313  -373.6027   715.3908 H6            1 RES     
   35750 H6        -509.6933  -378.6687   716.9374 H6            1 RES     
   35751 H6        -508.7302  -378.0982   715.5416 H6            1 RES     
   35752 H6        -509.4694  -379.8445   714.0451 H6            1 RES     
   35753 H6        -508.6189  -380.3801   715.4764 H6            1 RES     
   35754 H6        -511.5938  -380.9254   714.9343 H6            1 RES     
   35755 H6        -510.1886  -382.0246   714.8945 H6            1 RES     
   35756 H6        -511.3335  -380.5726   717.3257 H6            1 RES     
   35757 H6        -509.7674  -381.4874   717.3687 H6            1 RES     
   35758 H6        -510.8582  -383.6157   716.9134 H6            1 RES     
   35759 H6        -512.4213  -382.8133   716.5482 H6            1 RES     
   35760 H6        -512.5441  -383.7799   718.8033 H6            1 RES     
   35761 H6        -512.6956  -382.0037   718.8032 H6            1 RES     
   35762 H6        -511.3694  -382.6116   720.7112 H6            1 RES     
   35763 H6        -510.3343  -381.7452   719.5680 H6            1 RES     
   35764 H6        -509.3186  -383.9135   718.8072 H6            1 RES     
   35765 H6        -509.1101  -383.6063   720.5608 H6            1 RES     
   35766 H6        -511.1602  -385.5503   719.3043 H6            1 RES     
   35767 H6        -509.6245  -385.9700   720.1284 H6            1 RES     
   35768 H6        -510.4779  -384.9898   722.2731 H6            1 RES     
   35769 H6        -512.0570  -384.6159   721.4677 H6            1 RES     
   35770 H6        -511.5283  -386.3171   721.6494 H6            1 RES     
   35771 C0        -513.9918  -362.7911   724.7047 C0            1 RES     
   35772 C0        -515.3114  -364.0222   724.2992 C0            1 RES     
   35773 C0        -515.2357  -365.0733   725.2042 C0            1 RES     
   35774 S1        -516.1607  -366.4687   724.8181 S1            1 RES     
   35775 C0        -516.8782  -366.0552   723.3795 C0            1 RES     
   35776 C0        -516.3277  -364.6098   723.2136 C0            1 RES     
   35777 C0        -513.9864  -365.0602   725.9662 C0            1 RES     
   35778 C0        -513.2529  -364.1262   725.0174 C0            1 RES     
   35779 C0        -512.5189  -364.8257   724.1096 C0            1 RES     
   35780 C0        -512.4464  -366.1992   724.3288 C0            1 RES     
   35781 S1        -513.2568  -366.7395   725.8092 S1            1 RES     
   35782 H2        -516.5620  -364.1097   722.2815 H2            1 RES     
   35783 H2        -512.1847  -364.4137   723.1715 H2            1 RES     
   35784 N3        -518.2358  -369.7662   722.7972 N3            1 RES     
   35785 C0        -517.5914  -368.6613   723.2027 C0            1 RES     
   35786 C0        -517.7923  -367.2984   722.6791 C0            1 RES     
   35787 C0        -518.8203  -367.3636   721.6192 C0            1 RES     
   35788 N3        -519.2716  -366.2945   720.8897 N3            1 RES     
   35789 S1        -520.4280  -366.9577   719.8905 S1            1 RES     
   35790 N3        -520.4125  -368.5640   720.2770 N3            1 RES     
   35791 C0        -519.4796  -368.6146   721.2373 C0            1 RES     
   35792 C0        -519.1851  -369.8215   721.8228 C0            1 RES     
   35793 H4        -516.8732  -368.8525   723.9688 H4            1 RES     
   35794 C5        -505.0956  -350.9763   737.2539 C5            1 RES     
   35795 C5        -506.0052  -351.8417   736.3362 C5            1 RES     
   35796 C5        -505.7902  -351.5835   734.8087 C5            1 RES     
   35797 C5        -506.4297  -352.6175   733.7598 C5            1 RES     
   35798 C5        -507.9918  -352.6388   733.4672 C5            1 RES     
   35799 C5        -508.7380  -353.8398   732.5851 C5            1 RES     
   35800 C5        -508.7291  -354.0540   730.9457 C5            1 RES     
   35801 C5        -509.7691  -355.0517   729.9441 C5            1 RES     
   35802 C5        -509.7211  -356.6791   729.4349 C5            1 RES     
   35803 C5        -510.7230  -357.8676   728.5253 C5            1 RES     
   35804 C5        -511.0228  -358.3831   726.8462 C5            1 RES     
   35805 C5        -510.6315  -356.9668   726.1289 C5            1 RES     
   35806 C5        -511.3429  -355.6029   726.5565 C5            1 RES     
   35807 C5        -510.5518  -354.2678   726.2101 C5            1 RES     
   35808 C5        -511.3285  -352.9194   726.4647 C5            1 RES     
   35809 C5        -512.7300  -352.8703   725.8177 C5            1 RES     
   35810 C5        -512.7397  -353.1780   724.3007 C5            1 RES     
   35811 C5        -513.1209  -352.0152   723.3771 C5            1 RES     
   35812 C5        -512.1984  -350.8041   723.4615 C5            1 RES     
   35813 C5        -511.8724  -359.8563   725.8419 C5            1 RES     
   35814 C0        -513.2504  -361.2421   725.7300 C0            1 RES     
   35815 C5        -514.4139  -360.5489   726.4842 C5            1 RES     
   35816 C5        -514.0227  -359.7250   727.8047 C5            1 RES     
   35817 C5        -513.9341  -360.6021   729.0655 C5            1 RES     
   35818 C5        -513.0710  -361.8824   728.9854 C5            1 RES     
   35819 C5        -511.6155  -361.6879   728.5074 C5            1 RES     
   35820 C5        -510.6986  -362.8779   728.7584 C5            1 RES     
   35821 C5        -511.2548  -364.1755   728.1711 C5            1 RES     
   35822 C5        -510.4434  -365.3728   728.6553 C5            1 RES     
   35823 C5        -511.1974  -366.6547   728.3286 C5            1 RES     
   35824 C5        -510.5671  -367.8788   728.9525 C5            1 RES     
   35825 C5        -514.9532  -358.4786   727.9926 C5            1 RES     
   35826 C5        -514.5553  -357.2593   728.9101 C5            1 RES     
   35827 C5        -514.6074  -357.3169   730.4612 C5            1 RES     
   35828 C5        -515.9733  -357.7833   730.9810 C5            1 RES     
   35829 C5        -516.1731  -357.5548   732.4963 C5            1 RES     
   35830 C5        -517.3739  -358.3575   733.0440 C5            1 RES     
   35831 C5        -518.7352  -358.0863   732.3699 C5            1 RES     
   35832 C5        -519.3206  -356.6810   732.6028 C5            1 RES     
   35833 C5        -519.6164  -356.3367   734.0760 C5            1 RES     
   35834 C5        -520.6193  -357.2884   734.7341 C5            1 RES     
   35835 H6        -504.0155  -351.1705   737.0622 H6            1 RES     
   35836 H6        -505.2799  -349.8873   737.1348 H6            1 RES     
   35837 H6        -505.2723  -351.2263   738.3276 H6            1 RES     
   35838 H6        -505.7495  -352.8967   736.5681 H6            1 RES     
   35839 H6        -507.0616  -351.6542   736.6159 H6            1 RES     
   35840 H6        -506.0524  -350.5261   734.5781 H6            1 RES     
   35841 H6        -504.6841  -351.6612   734.6797 H6            1 RES     
   35842 H6        -506.1119  -353.6212   734.1026 H6            1 RES     
   35843 H6        -505.9354  -352.4003   732.7916 H6            1 RES     
   35844 H6        -508.2775  -351.6271   733.0941 H6            1 RES     
   35845 H6        -508.4267  -352.6956   734.4937 H6            1 RES     
   35846 H6        -509.8056  -353.6359   732.8226 H6            1 RES     
   35847 H6        -508.4621  -354.7860   733.0817 H6            1 RES     
   35848 H6        -508.9926  -353.0096   730.6437 H6            1 RES     
   35849 H6        -507.6709  -354.1683   730.6327 H6            1 RES     
   35850 H6        -509.6991  -354.4651   729.0046 H6            1 RES     
   35851 H6        -510.7729  -354.8152   730.3576 H6            1 RES     
   35852 H6        -508.6913  -356.7850   729.0357 H6            1 RES     
   35853 H6        -509.7094  -357.1313   730.4475 H6            1 RES     
   35854 H6        -511.7011  -357.7422   728.9997 H6            1 RES     
   35855 H6        -510.3044  -358.7883   728.9526 H6            1 RES     
   35856 H6        -510.0163  -358.8245   726.6700 H6            1 RES     
   35857 H6        -510.5546  -357.0423   725.0257 H6            1 RES     
   35858 H6        -509.5788  -356.7572   726.4560 H6            1 RES     
   35859 H6        -511.5029  -355.5462   727.6514 H6            1 RES     
   35860 H6        -512.3272  -355.5963   726.0631 H6            1 RES     
   35861 H6        -510.2183  -354.2853   725.1591 H6            1 RES     
   35862 H6        -509.6031  -354.1978   726.7918 H6            1 RES     
   35863 H6        -510.7258  -352.0559   726.0922 H6            1 RES     
   35864 H6        -511.4633  -352.7518   727.5585 H6            1 RES     
   35865 H6        -513.3262  -353.6447   726.3390 H6            1 RES     
   35866 H6        -513.2639  -351.9171   726.0380 H6            1 RES     
   35867 H6        -511.7865  -353.6110   723.9549 H6            1 RES     
   35868 H6        -513.5057  -353.9635   724.1321 H6            1 RES     
   35869 H6        -514.1604  -351.6949   723.5987 H6            1 RES     
   35870 H6        -513.0924  -352.4043   722.3349 H6            1 RES     
   35871 H6        -511.1482  -351.0880   723.2433 H6            1 RES     
   35872 H6        -512.5288  -350.0562   722.7076 H6            1 RES     
   35873 H6        -512.2601  -350.3348   724.4646 H6            1 RES     
   35874 H6        -510.9761  -360.4929   725.6625 H6            1 RES     
   35875 H6        -511.9511  -359.3798   724.8419 H6            1 RES     
   35876 H6        -514.8064  -359.8529   725.7182 H6            1 RES     
   35877 H6        -515.2004  -361.2920   726.7212 H6            1 RES     
   35878 H6        -513.0611  -359.2549   727.7168 H6            1 RES     
   35879 H6        -513.5326  -359.9779   729.8832 H6            1 RES     
   35880 H6        -514.9569  -360.9186   729.3445 H6            1 RES     
   35881 H6        -513.0548  -362.3055   730.0114 H6            1 RES     
   35882 H6        -513.5841  -362.6049   728.3165 H6            1 RES     
   35883 H6        -511.6034  -361.5754   727.4412 H6            1 RES     
   35884 H6        -511.1663  -360.8014   728.9829 H6            1 RES     
   35885 H6        -509.6953  -362.6730   728.3174 H6            1 RES     
   35886 H6        -510.5908  -362.9770   729.8565 H6            1 RES     
   35887 H6        -512.2808  -364.3165   728.5600 H6            1 RES     
   35888 H6        -511.3005  -364.1350   727.0586 H6            1 RES     
   35889 H6        -509.4277  -365.3738   728.2014 H6            1 RES     
   35890 H6        -510.3527  -365.3056   729.7596 H6            1 RES     
   35891 H6        -511.1923  -366.7823   727.2378 H6            1 RES     
   35892 H6        -512.2405  -366.5801   728.7185 H6            1 RES     
   35893 H6        -509.5517  -368.0304   728.5364 H6            1 RES     
   35894 H6        -511.2013  -368.7607   728.7185 H6            1 RES     
   35895 H6        -510.5191  -367.7544   730.0544 H6            1 RES     
   35896 H6        -515.9864  -358.8049   728.2073 H6            1 RES     
   35897 H6        -514.9555  -357.9968   726.9885 H6            1 RES     
   35898 H6        -513.5730  -356.8516   728.6050 H6            1 RES     
   35899 H6        -515.2759  -356.4552   728.6453 H6            1 RES     
   35900 H6        -513.7999  -357.9460   730.8904 H6            1 RES     
   35901 H6        -514.4269  -356.2765   730.8257 H6            1 RES     
   35902 H6        -516.0462  -358.8652   730.7487 H6            1 RES     
   35903 H6        -516.7792  -357.2325   730.4513 H6            1 RES     
   35904 H6        -516.2895  -356.4671   732.7099 H6            1 RES     
   35905 H6        -515.2772  -357.9090   733.0514 H6            1 RES     
   35906 H6        -517.4588  -358.2067   734.1409 H6            1 RES     
   35907 H6        -517.1393  -359.4323   732.8865 H6            1 RES     
   35908 H6        -519.4620  -358.8394   732.7368 H6            1 RES     
   35909 H6        -518.6456  -358.2612   731.2780 H6            1 RES     
   35910 H6        -518.6286  -355.9190   732.1865 H6            1 RES     
   35911 H6        -520.2748  -356.6117   732.0345 H6            1 RES     
   35912 H6        -518.6774  -356.3255   734.6665 H6            1 RES     
   35913 H6        -520.0463  -355.3119   734.1075 H6            1 RES     
   35914 H6        -521.5754  -357.2986   734.1685 H6            1 RES     
   35915 H6        -520.2151  -358.3198   734.7923 H6            1 RES     
   35916 H6        -520.8250  -356.9500   735.7714 H6            1 RES     
   35917 C0        -519.2526  -374.6137   719.8215 C0            1 RES     
   35918 C0        -518.5934  -374.5896   721.5495 C0            1 RES     
   35919 C0        -519.6125  -374.2047   722.4115 C0            1 RES     
   35920 S1        -519.1360  -373.8143   724.0154 S1            1 RES     
   35921 C0        -517.4919  -374.0399   723.9823 C0            1 RES     
   35922 C0        -517.3184  -374.5162   722.5116 C0            1 RES     
   35923 C0        -520.7576  -373.6376   721.6983 C0            1 RES     
   35924 C0        -520.0032  -373.3794   720.4042 C0            1 RES     
   35925 C0        -519.5311  -372.1039   720.3571 C0            1 RES     
   35926 C0        -519.9643  -371.2668   721.3825 C0            1 RES     
   35927 S1        -521.1231  -372.0206   722.4913 S1            1 RES     
   35928 H2        -516.3004  -374.6515   722.1666 H2            1 RES     
   35929 H2        -518.7227  -371.7928   719.7159 H2            1 RES     
   35930 N3        -517.0267  -372.4106   727.5992 N3            1 RES     
   35931 C0        -517.4647  -372.8164   726.3976 C0            1 RES     
   35932 C0        -516.7066  -373.6234   725.4250 C0            1 RES     
   35933 C0        -515.3730  -373.8973   726.0003 C0            1 RES     
   35934 N3        -514.3797  -374.6145   725.3855 N3            1 RES     
   35935 S1        -513.1459  -374.6206   726.5050 S1            1 RES     
   35936 N3        -513.7481  -373.7366   727.7642 N3            1 RES     
   35937 C0        -514.9732  -373.4180   727.3254 C0            1 RES     
   35938 C0        -515.7985  -372.6683   728.1273 C0            1 RES     
   35939 H4        -518.4554  -372.4848   726.1789 H4            1 RES     
   35940 C5        -532.2276  -380.5849   706.6987 C5            1 RES     
   35941 C5        -531.1869  -380.3244   707.8245 C5            1 RES     
   35942 C5        -529.8153  -379.7821   707.3041 C5            1 RES     
   35943 C5        -528.7747  -379.1825   708.3700 C5            1 RES     
   35944 C5        -527.9528  -380.1298   709.3463 C5            1 RES     
   35945 C5        -527.0532  -379.5587   710.6276 C5            1 RES     
   35946 C5        -525.5757  -378.8179   710.5842 C5            1 RES     
   35947 C5        -524.4311  -378.5323   711.8836 C5            1 RES     
   35948 C5        -524.2215  -377.2852   713.0285 C5            1 RES     
   35949 C5        -523.2037  -376.8866   714.4600 C5            1 RES     
   35950 C5        -521.6250  -376.1520   714.8378 C5            1 RES     
   35951 C5        -520.8905  -376.5170   713.4233 C5            1 RES     
   35952 C5        -520.8284  -378.0212   712.8917 C5            1 RES     
   35953 C5        -520.5904  -378.1973   711.3295 C5            1 RES     
   35954 C5        -520.3477  -379.6731   710.8302 C5            1 RES     
   35955 C5        -519.2454  -380.4256   711.6072 C5            1 RES     
   35956 C5        -517.8882  -379.6832   711.6618 C5            1 RES     
   35957 C5        -516.7267  -380.3407   710.9073 C5            1 RES     
   35958 C5        -516.9514  -380.5061   709.4083 C5            1 RES     
   35959 C5        -520.6165  -375.4348   716.3771 C5            1 RES     
   35960 C0        -520.2306  -375.4603   718.2960 C0            1 RES     
   35961 C5        -520.4094  -376.9693   718.6028 C5            1 RES     
   35962 C5        -521.6438  -377.7051   717.8884 C5            1 RES     
   35963 C5        -522.9696  -377.5514   718.6533 C5            1 RES     
   35964 C5        -523.3938  -376.1233   719.0671 C5            1 RES     
   35965 C5        -523.4410  -375.0766   717.9327 C5            1 RES     
   35966 C5        -524.1763  -373.7898   718.2839 C5            1 RES     
   35967 C5        -523.6307  -373.1355   719.5537 C5            1 RES     
   35968 C5        -524.5447  -372.0015   720.0063 C5            1 RES     
   35969 C5        -524.1669  -371.5876   721.4221 C5            1 RES     
   35970 C5        -525.1495  -370.6116   722.0276 C5            1 RES     
   35971 C5        -521.3001  -379.1973   717.5565 C5            1 RES     
   35972 C5        -522.1059  -380.0310   716.4877 C5            1 RES     
   35973 C5        -523.5271  -380.5974   716.7545 C5            1 RES     
   35974 C5        -523.5911  -381.4264   718.0438 C5            1 RES     
   35975 C5        -524.8841  -382.2614   718.1828 C5            1 RES     
   35976 C5        -525.0826  -382.7752   719.6259 C5            1 RES     
   35977 C5        -523.9363  -383.6306   720.2050 C5            1 RES     
   35978 C5        -523.7331  -385.0037   719.5379 C5            1 RES     
   35979 C5        -524.9359  -385.9620   719.6448 C5            1 RES     
   35980 C5        -525.3289  -386.2869   721.0887 C5            1 RES     
   35981 H6        -532.4636  -379.6539   706.1343 H6            1 RES     
   35982 H6        -531.8895  -381.3553   705.9733 H6            1 RES     
   35983 H6        -533.1929  -380.9403   707.1329 H6            1 RES     
   35984 H6        -531.6494  -379.5680   708.4923 H6            1 RES     
   35985 H6        -531.0415  -381.2672   708.3896 H6            1 RES     
   35986 H6        -529.3514  -380.5451   706.6388 H6            1 RES     
   35987 H6        -530.1010  -378.9299   706.6423 H6            1 RES     
   35988 H6        -529.3540  -378.4565   708.9727 H6            1 RES     
   35989 H6        -528.0246  -378.6279   707.7712 H6            1 RES     
   35990 H6        -527.3558  -380.8279   708.7133 H6            1 RES     
   35991 H6        -528.7539  -380.7665   709.7924 H6            1 RES     
   35992 H6        -526.8624  -380.5040   711.1823 H6            1 RES     
   35993 H6        -527.7508  -378.9539   711.2322 H6            1 RES     
   35994 H6        -525.0473  -379.5474   709.9209 H6            1 RES     
   35995 H6        -525.6800  -377.9079   709.9583 H6            1 RES     
   35996 H6        -523.5014  -378.5115   711.2779 H6            1 RES     
   35997 H6        -524.4205  -379.5190   712.3943 H6            1 RES     
   35998 H6        -524.2349  -376.3684   712.4037 H6            1 RES     
   35999 H6        -525.2275  -377.3616   713.4889 H6            1 RES     
   36000 H6        -523.2751  -377.8078   715.0462 H6            1 RES     
   36001 H6        -523.8844  -376.1751   714.9457 H6            1 RES     
   36002 H6        -521.8861  -375.1207   714.5103 H6            1 RES     
   36003 H6        -519.9112  -376.0134   713.2967 H6            1 RES     
   36004 H6        -521.5351  -376.0494   712.6327 H6            1 RES     
   36005 H6        -521.7733  -378.5668   713.0846 H6            1 RES     
   36006 H6        -520.0223  -378.5178   713.4539 H6            1 RES     
   36007 H6        -519.7418  -377.5741   711.0015 H6            1 RES     
   36008 H6        -521.4538  -377.8058   710.7425 H6            1 RES     
   36009 H6        -520.0892  -379.6705   709.7435 H6            1 RES     
   36010 H6        -521.2840  -380.2710   710.9225 H6            1 RES     
   36011 H6        -519.6302  -380.5345   712.6401 H6            1 RES     
   36012 H6        -519.1164  -381.4733   711.2495 H6            1 RES     
   36013 H6        -517.9725  -378.6317   711.3411 H6            1 RES     
   36014 H6        -517.5777  -379.6489   712.7270 H6            1 RES     
   36015 H6        -516.5139  -381.3347   711.3536 H6            1 RES     
   36016 H6        -515.8334  -379.6944   711.0576 H6            1 RES     
   36017 H6        -517.1658  -379.5292   708.9280 H6            1 RES     
   36018 H6        -516.0266  -380.9288   708.9579 H6            1 RES     
   36019 H6        -517.7849  -381.2115   709.2134 H6            1 RES     
   36020 H6        -520.8647  -374.3544   716.2680 H6            1 RES     
   36021 H6        -519.5947  -375.4240   715.9424 H6            1 RES     
   36022 H6        -519.4591  -377.3972   718.2300 H6            1 RES     
   36023 H6        -520.4597  -377.1241   719.6985 H6            1 RES     
   36024 H6        -521.8342  -377.3128   716.9070 H6            1 RES     
   36025 H6        -523.7735  -377.9704   718.0226 H6            1 RES     
   36026 H6        -522.9109  -378.1526   719.5803 H6            1 RES     
   36027 H6        -524.4094  -376.2201   719.5041 H6            1 RES     
   36028 H6        -522.7022  -375.7731   719.8619 H6            1 RES     
   36029 H6        -522.4447  -374.7496   717.7089 H6            1 RES     
   36030 H6        -523.9069  -375.5034   717.0301 H6            1 RES     
   36031 H6        -524.0953  -373.0723   717.4345 H6            1 RES     
   36032 H6        -525.2426  -374.0550   718.4250 H6            1 RES     
   36033 H6        -523.6459  -373.8899   720.3627 H6            1 RES     
   36034 H6        -522.5819  -372.7856   719.4159 H6            1 RES     
   36035 H6        -524.4870  -371.1407   719.3039 H6            1 RES     
   36036 H6        -525.5858  -372.3857   720.0325 H6            1 RES     
   36037 H6        -523.1813  -371.1048   721.3824 H6            1 RES     
   36038 H6        -524.1448  -372.4903   722.0780 H6            1 RES     
   36039 H6        -525.1491  -369.6696   721.4447 H6            1 RES     
   36040 H6        -524.8400  -370.4024   723.0741 H6            1 RES     
   36041 H6        -526.1647  -371.0602   722.0373 H6            1 RES     
   36042 H6        -521.1798  -379.7759   718.4898 H6            1 RES     
   36043 H6        -520.3009  -379.1362   717.0687 H6            1 RES     
   36044 H6        -522.1125  -379.5057   715.5140 H6            1 RES     
   36045 H6        -521.4853  -380.9348   716.3031 H6            1 RES     
   36046 H6        -524.3042  -379.8050   716.7707 H6            1 RES     
   36047 H6        -523.7722  -381.2646   715.8927 H6            1 RES     
   36048 H6        -523.5125  -380.7078   718.8848 H6            1 RES     
   36049 H6        -522.7336  -382.1316   718.0738 H6            1 RES     
   36050 H6        -524.8772  -383.1062   717.4558 H6            1 RES     
   36051 H6        -525.7676  -381.6282   717.9489 H6            1 RES     
   36052 H6        -526.0420  -383.3296   719.6995 H6            1 RES     
   36053 H6        -525.1813  -381.8783   720.2746 H6            1 RES     
   36054 H6        -524.1291  -383.7858   721.2861 H6            1 RES     
   36055 H6        -522.9868  -383.0597   720.1473 H6            1 RES     
   36056 H6        -523.4811  -384.8600   718.4662 H6            1 RES     
   36057 H6        -522.8593  -385.4920   720.0240 H6            1 RES     
   36058 H6        -525.8127  -385.5432   719.1099 H6            1 RES     
   36059 H6        -524.6589  -386.9148   719.1434 H6            1 RES     
   36060 H6        -524.4687  -386.7273   721.6368 H6            1 RES     
   36061 H6        -525.6803  -385.3804   721.6226 H6            1 RES     
   36062 H6        -526.1623  -387.0206   721.0894 H6            1 RES     
   36063 C0        -514.6441  -368.9553   731.5705 C0            1 RES     
   36064 C0        -516.4693  -369.1517   731.3434 C0            1 RES     
   36065 C0        -516.8449  -370.4066   731.8058 C0            1 RES     
   36066 S1        -518.4358  -370.9139   731.4013 S1            1 RES     
   36067 C0        -519.0233  -369.6354   730.5207 C0            1 RES     
   36068 C0        -517.7991  -368.6783   730.5923 C0            1 RES     
   36069 C0        -515.6951  -371.2868   732.0172 C0            1 RES     
   36070 C0        -514.7305  -370.4612   731.1815 C0            1 RES     
   36071 C0        -514.6643  -370.9270   729.9046 C0            1 RES     
   36072 C0        -515.3313  -372.1269   729.6695 C0            1 RES     
   36073 S1        -516.0552  -372.8480   731.1174 S1            1 RES     
   36074 H2        -517.8628  -367.7708   730.0040 H2            1 RES     
   36075 H2        -514.3135  -370.3365   729.0741 H2            1 RES     
   36076 N3        -522.2824  -371.6692   729.4274 N3            1 RES     
   36077 C0        -521.0787  -371.2729   729.8683 C0            1 RES     
   36078 C0        -520.5713  -369.8893   729.8797 C0            1 RES     
   36079 C0        -521.6170  -369.0150   729.3082 C0            1 RES     
   36080 N3        -521.5100  -367.6582   729.1453 N3            1 RES     
   36081 S1        -522.9822  -367.2203   728.5003 S1            1 RES     
   36082 N3        -523.7980  -368.6508   728.3659 N3            1 RES     
   36083 C0        -522.9101  -369.5290   728.8509 C0            1 RES     
   36084 C0        -523.2446  -370.8599   728.9050 C0            1 RES     
   36085 H4        -520.4752  -372.0796   730.2209 H4            1 RES     
   36086 C5        -498.8169  -369.2539   742.7788 C5            1 RES     
   36087 C5        -500.1867  -369.1188   742.0549 C5            1 RES     
   36088 C5        -500.1129  -368.3336   740.7043 C5            1 RES     
   36089 C5        -501.3766  -368.3908   739.7152 C5            1 RES     
   36090 C5        -502.7112  -367.5875   740.0312 C5            1 RES     
   36091 C5        -504.1277  -367.8018   739.1800 C5            1 RES     
   36092 C5        -504.5021  -367.2440   737.6692 C5            1 RES     
   36093 C5        -506.0651  -367.1172   736.8812 C5            1 RES     
   36094 C5        -507.0096  -368.1804   735.9392 C5            1 RES     
   36095 C5        -508.6326  -368.2599   735.1623 C5            1 RES     
   36096 C5        -509.4325  -367.7829   733.6432 C5            1 RES     
   36097 C5        -508.4429  -366.5331   733.2795 C5            1 RES     
   36098 C5        -508.1993  -365.3460   734.3190 C5            1 RES     
   36099 C5        -506.8687  -364.5010   734.1101 C5            1 RES     
   36100 C5        -506.7149  -363.2202   735.0168 C5            1 RES     
   36101 C5        -507.9360  -362.2754   734.9814 C5            1 RES     
   36102 C5        -508.3578  -361.8367   733.5581 C5            1 RES     
   36103 C5        -508.1727  -360.3516   733.2253 C5            1 RES     
   36104 C5        -506.7345  -359.8526   733.3110 C5            1 RES     
   36105 C5        -511.1040  -368.1095   732.6432 C5            1 RES     
   36106 C0        -513.0155  -368.5311   732.6513 C0            1 RES     
   36107 C5        -513.4606  -367.8123   733.9507 C5            1 RES     
   36108 C5        -512.4727  -367.9299   735.2099 C5            1 RES     
   36109 C5        -512.6843  -369.2129   736.0318 C5            1 RES     
   36110 C5        -512.7019  -370.5563   735.2667 C5            1 RES     
   36111 C5        -511.4820  -370.8351   734.3617 C5            1 RES     
   36112 C5        -511.3525  -372.2791   733.8948 C5            1 RES     
   36113 C5        -512.6202  -372.7837   733.2046 C5            1 RES     
   36114 C5        -512.5435  -374.2904   732.9802 C5            1 RES     
   36115 C5        -513.9222  -374.8113   732.5978 C5            1 RES     
   36116 C5        -513.9859  -376.3209   732.5560 C5            1 RES     
   36117 C5        -512.5116  -366.6310   736.0851 C5            1 RES     
   36118 C5        -511.3637  -366.2643   737.1022 C5            1 RES     
   36119 C5        -511.1894  -366.9755   738.4718 C5            1 RES     
   36120 C5        -512.4801  -366.9668   739.3009 C5            1 RES     
   36121 C5        -512.2737  -367.3740   740.7774 C5            1 RES     
   36122 C5        -513.6115  -367.7126   741.4714 C5            1 RES     
   36123 C5        -514.6810  -366.6004   741.4620 C5            1 RES     
   36124 C5        -514.3429  -365.3502   742.2953 C5            1 RES     
   36125 C5        -514.1573  -365.6060   743.8041 C5            1 RES     
   36126 C5        -515.3984  -366.1972   744.4785 C5            1 RES     
   36127 H6        -498.0732  -369.7971   742.1521 H6            1 RES     
   36128 H6        -498.3830  -368.2709   743.0605 H6            1 RES     
   36129 H6        -498.9276  -369.8480   743.7177 H6            1 RES     
   36130 H6        -500.5254  -370.1570   741.8561 H6            1 RES     
   36131 H6        -500.9007  -368.6304   742.7485 H6            1 RES     
   36132 H6        -499.7780  -367.2913   740.9074 H6            1 RES     
   36133 H6        -499.2734  -368.8253   740.1572 H6            1 RES     
   36134 H6        -501.6184  -369.4658   739.6061 H6            1 RES     
   36135 H6        -501.0078  -368.0096   738.7418 H6            1 RES     
   36136 H6        -502.4435  -366.5070   740.1041 H6            1 RES     
   36137 H6        -502.9332  -367.8959   741.0808 H6            1 RES     
   36138 H6        -504.8486  -367.2770   739.8453 H6            1 RES     
   36139 H6        -504.3472  -368.8818   739.2387 H6            1 RES     
   36140 H6        -504.1869  -366.1795   737.8061 H6            1 RES     
   36141 H6        -503.7515  -367.6614   736.9671 H6            1 RES     
   36142 H6        -505.8335  -366.2733   736.1986 H6            1 RES     
   36143 H6        -506.6876  -366.6733   737.6875 H6            1 RES     
   36144 H6        -506.2913  -368.5403   735.1740 H6            1 RES     
   36145 H6        -507.0884  -368.9880   736.6951 H6            1 RES     
   36146 H6        -509.2858  -367.9410   735.9803 H6            1 RES     
   36147 H6        -508.7325  -369.3522   735.1145 H6            1 RES     
   36148 H6        -508.8834  -368.4932   732.9852 H6            1 RES     
   36149 H6        -508.5989  -366.1356   732.2566 H6            1 RES     
   36150 H6        -507.4145  -366.9801   733.2381 H6            1 RES     
   36151 H6        -508.1230  -365.7178   735.3600 H6            1 RES     
   36152 H6        -509.0787  -364.6869   734.2516 H6            1 RES     
   36153 H6        -506.7746  -364.1948   733.0548 H6            1 RES     
   36154 H6        -505.9618  -365.1239   734.2909 H6            1 RES     
   36155 H6        -505.8037  -362.6479   734.7170 H6            1 RES     
   36156 H6        -506.5566  -363.5162   736.0798 H6            1 RES     
   36157 H6        -508.7686  -362.8473   735.4360 H6            1 RES     
   36158 H6        -507.8084  -361.3946   735.6523 H6            1 RES     
   36159 H6        -507.8748  -362.4414   732.7728 H6            1 RES     
   36160 H6        -509.4459  -362.0356   733.4644 H6            1 RES     
   36161 H6        -508.8086  -359.7413   733.9003 H6            1 RES     
   36162 H6        -508.5323  -360.2042   732.1826 H6            1 RES     
   36163 H6        -506.0691  -360.4407   732.6458 H6            1 RES     
   36164 H6        -506.7107  -358.7888   732.9878 H6            1 RES     
   36165 H6        -506.3638  -359.9055   734.3551 H6            1 RES     
   36166 H6        -510.7536  -368.9218   731.9662 H6            1 RES     
   36167 H6        -511.0645  -367.2589   731.9303 H6            1 RES     
   36168 H6        -513.5183  -366.7560   733.6247 H6            1 RES     
   36169 H6        -514.4769  -368.1494   734.2345 H6            1 RES     
   36170 H6        -511.4409  -367.9491   734.9127 H6            1 RES     
   36171 H6        -511.8792  -369.2672   736.7859 H6            1 RES     
   36172 H6        -513.6503  -369.1319   736.5651 H6            1 RES     
   36173 H6        -512.7586  -371.3492   736.0413 H6            1 RES     
   36174 H6        -513.6287  -370.5955   734.6566 H6            1 RES     
   36175 H6        -511.5807  -370.2789   733.4505 H6            1 RES     
   36176 H6        -510.5474  -370.5540   734.8731 H6            1 RES     
   36177 H6        -510.4902  -372.3665   733.1935 H6            1 RES     
   36178 H6        -511.1432  -372.8920   734.7936 H6            1 RES     
   36179 H6        -513.4739  -372.6133   733.8872 H6            1 RES     
   36180 H6        -512.8134  -372.2375   732.2530 H6            1 RES     
   36181 H6        -511.7873  -374.5380   732.2028 H6            1 RES     
   36182 H6        -512.2551  -374.7689   733.9394 H6            1 RES     
   36183 H6        -514.1637  -374.4281   731.5973 H6            1 RES     
   36184 H6        -514.6702  -374.4657   733.3506 H6            1 RES     
   36185 H6        -513.3073  -376.7026   731.7679 H6            1 RES     
   36186 H6        -515.0302  -376.6241   732.3276 H6            1 RES     
   36187 H6        -513.7011  -376.7349   733.5457 H6            1 RES     
   36188 H6        -513.5019  -366.5244   736.5627 H6            1 RES     
   36189 H6        -512.4075  -365.8082   735.3419 H6            1 RES     
   36190 H6        -510.3844  -366.2447   736.5877 H6            1 RES     
   36191 H6        -511.5490  -365.2016   737.3715 H6            1 RES     
   36192 H6        -510.8098  -368.0132   738.3665 H6            1 RES     
   36193 H6        -510.4068  -366.4064   739.0300 H6            1 RES     
   36194 H6        -513.1766  -367.6746   738.8072 H6            1 RES     
   36195 H6        -512.9180  -365.9462   739.2943 H6            1 RES     
   36196 H6        -511.7316  -366.5698   741.3266 H6            1 RES     
   36197 H6        -511.6492  -368.2924   740.8304 H6            1 RES     
   36198 H6        -513.4213  -368.0451   742.5137 H6            1 RES     
   36199 H6        -514.0409  -368.5839   740.9314 H6            1 RES     
   36200 H6        -515.6332  -367.0294   741.8353 H6            1 RES     
   36201 H6        -514.8799  -366.2910   740.4153 H6            1 RES     
   36202 H6        -513.4221  -364.8769   741.8941 H6            1 RES     
   36203 H6        -515.1749  -364.6221   742.1690 H6            1 RES     
   36204 H6        -513.2895  -366.2744   743.9791 H6            1 RES     
   36205 H6        -513.9354  -364.6314   744.2909 H6            1 RES     
   36206 H6        -516.2757  -365.5315   744.3321 H6            1 RES     
   36207 H6        -515.6307  -367.2054   744.0783 H6            1 RES     
   36208 H6        -515.2125  -366.3037   745.5679 H6            1 RES     
   36209 C0        -526.2770  -373.6754   725.7661 C0            1 RES     
   36210 C0        -525.4482  -374.7159   727.0513 C0            1 RES     
   36211 C0        -525.9288  -374.3489   728.3019 C0            1 RES     
   36212 S1        -525.0661  -374.9679   729.6526 S1            1 RES     
   36213 C0        -523.8537  -375.8552   728.9469 C0            1 RES     
   36214 C0        -524.2118  -375.6494   727.4472 C0            1 RES     
   36215 C0        -526.6641  -373.0842   728.2643 C0            1 RES     
   36216 C0        -526.1125  -372.6409   726.9190 C0            1 RES     
   36217 C0        -525.0274  -371.8345   727.0749 C0            1 RES     
   36218 C0        -524.7528  -371.4465   728.3840 C0            1 RES     
   36219 S1        -525.9392  -372.0151   729.5713 S1            1 RES     
   36220 H2        -523.5107  -376.0511   726.7256 H2            1 RES     
   36221 H2        -524.2976  -371.6641   726.3005 H2            1 RES     
   36222 N3        -521.9906  -376.3984   732.4380 N3            1 RES     
   36223 C0        -522.7660  -375.9871   731.4231 C0            1 RES     
   36224 C0        -522.7500  -376.5186   730.0485 C0            1 RES     
   36225 C0        -521.7205  -377.5768   729.9803 C0            1 RES     
   36226 N3        -521.4054  -378.3013   728.8601 N3            1 RES     
   36227 S1        -520.2215  -379.3484   729.3868 S1            1 RES     
   36228 N3        -520.0214  -378.9532   730.9785 N3            1 RES     
   36229 C0        -520.9157  -377.9687   731.1398 C0            1 RES     
   36230 C0        -521.0457  -377.3764   732.3720 C0            1 RES     
   36231 H4        -523.4263  -375.1940   731.6950 H4            1 RES     
   36232 C5        -542.2884  -366.7662   717.2742 C5            1 RES     
   36233 C5        -541.1134  -367.5232   717.9561 C5            1 RES     
   36234 C5        -539.7761  -367.4750   717.1465 C5            1 RES     
   36235 C5        -538.4230  -367.9411   717.8747 C5            1 RES     
   36236 C5        -538.1201  -369.4763   718.1532 C5            1 RES     
   36237 C5        -536.8634  -369.9979   719.1152 C5            1 RES     
   36238 C5        -535.2530  -370.0539   718.7447 C5            1 RES     
   36239 C5        -533.9514  -370.9143   719.5483 C5            1 RES     
   36240 C5        -532.9054  -370.5438   720.8439 C5            1 RES     
   36241 C5        -531.6237  -371.3189   721.8441 C5            1 RES     
   36242 C5        -529.8665  -371.6116   721.8053 C5            1 RES     
   36243 C5        -529.6958  -371.5918   720.1793 C5            1 RES     
   36244 C5        -530.5641  -372.5553   719.2483 C5            1 RES     
   36245 C5        -530.7179  -372.1032   717.7316 C5            1 RES     
   36246 C5        -531.4178  -373.1387   716.7703 C5            1 RES     
   36247 C5        -530.8099  -374.5573   716.8258 C5            1 RES     
   36248 C5        -529.2812  -374.6025   716.5869 C5            1 RES     
   36249 C5        -528.8180  -375.2925   715.2986 C5            1 RES     
   36250 C5        -529.3337  -374.6559   714.0126 C5            1 RES     
   36251 C5        -528.3985  -372.1822   722.9971 C5            1 RES     
   36252 C0        -527.7897  -373.2254   724.5375 C0            1 RES     
   36253 C5        -528.7230  -374.4588   724.4334 C5            1 RES     
   36254 C5        -530.2535  -374.1695   724.0471 C5            1 RES     
   36255 C5        -531.1285  -373.8042   725.2586 C5            1 RES     
   36256 C5        -530.6170  -372.6878   726.1980 C5            1 RES     
   36257 C5        -530.2572  -371.3469   725.5215 C5            1 RES     
   36258 C5        -530.0882  -370.1754   726.4801 C5            1 RES     
   36259 C5        -529.0763  -370.4708   727.5877 C5            1 RES     
   36260 C5        -529.1217  -369.3845   728.6574 C5            1 RES     
   36261 C5        -528.3566  -369.8580   729.8858 C5            1 RES     
   36262 C5        -528.5210  -368.9326   731.0695 C5            1 RES     
   36263 C5        -530.8532  -375.3368   723.1911 C5            1 RES     
   36264 C5        -532.1448  -375.1557   722.3047 C5            1 RES     
   36265 C5        -533.5767  -375.0879   722.9022 C5            1 RES     
   36266 C5        -533.8817  -376.2788   723.8200 C5            1 RES     
   36267 C5        -535.3782  -376.4203   724.1787 C5            1 RES     
   36268 C5        -535.5937  -377.3745   725.3742 C5            1 RES     
   36269 C5        -535.0388  -378.8048   725.2090 C5            1 RES     
   36270 C5        -535.7409  -379.6681   724.1443 C5            1 RES     
   36271 C5        -537.2373  -379.9313   724.4052 C5            1 RES     
   36272 C5        -537.5068  -380.6527   725.7288 C5            1 RES     
   36273 H6        -542.0556  -365.6856   717.1364 H6            1 RES     
   36274 H6        -542.5556  -367.1936   716.2843 H6            1 RES     
   36275 H6        -543.2041  -366.8098   717.9115 H6            1 RES     
   36276 H6        -540.9648  -367.0262   718.9374 H6            1 RES     
   36277 H6        -541.4267  -368.5734   718.1246 H6            1 RES     
   36278 H6        -539.9268  -367.9789   716.1650 H6            1 RES     
   36279 H6        -539.6431  -366.3905   716.9183 H6            1 RES     
   36280 H6        -538.3970  -367.3873   718.8331 H6            1 RES     
   36281 H6        -537.5989  -367.5740   717.2305 H6            1 RES     
   36282 H6        -538.1210  -370.0026   717.1696 H6            1 RES     
   36283 H6        -539.0558  -369.8170   718.6578 H6            1 RES     
   36284 H6        -537.1426  -371.0655   719.2570 H6            1 RES     
   36285 H6        -537.0009  -369.4871   720.0838 H6            1 RES     
   36286 H6        -535.3322  -370.5610   717.7508 H6            1 RES     
   36287 H6        -534.9342  -369.0204   718.4977 H6            1 RES     
   36288 H6        -533.2778  -371.0395   718.6753 H6            1 RES     
   36289 H6        -534.4078  -371.9150   719.7063 H6            1 RES     
   36290 H6        -532.5084  -369.5456   720.5661 H6            1 RES     
   36291 H6        -533.6956  -370.3637   721.6009 H6            1 RES     
   36292 H6        -532.0986  -372.2659   722.1180 H6            1 RES     
   36293 H6        -531.7073  -370.6796   722.7328 H6            1 RES     
   36294 H6        -529.5606  -370.5469   721.9150 H6            1 RES     
   36295 H6        -528.6371  -371.5755   719.8512 H6            1 RES     
   36296 H6        -530.0899  -370.5912   719.8586 H6            1 RES     
   36297 H6        -531.6073  -372.6488   719.6098 H6            1 RES     
   36298 H6        -530.0909  -373.5481   719.2994 H6            1 RES     
   36299 H6        -529.7319  -371.8466   717.3096 H6            1 RES     
   36300 H6        -531.3002  -371.1559   717.6494 H6            1 RES     
   36301 H6        -531.3795  -372.7678   715.7174 H6            1 RES     
   36302 H6        -532.4991  -373.2322   717.0246 H6            1 RES     
   36303 H6        -531.0190  -374.9313   717.8473 H6            1 RES     
   36304 H6        -531.3427  -375.2718   716.1567 H6            1 RES     
   36305 H6        -528.8187  -373.6031   716.6428 H6            1 RES     
   36306 H6        -528.8378  -375.1863   717.4205 H6            1 RES     
   36307 H6        -529.1236  -376.3595   715.3224 H6            1 RES     
   36308 H6        -527.7061  -375.2501   715.2881 H6            1 RES     
   36309 H6        -529.0442  -373.5864   713.9543 H6            1 RES     
   36310 H6        -528.8849  -375.1936   713.1487 H6            1 RES     
   36311 H6        -530.4367  -374.7509   713.9443 H6            1 RES     
   36312 H6        -528.0198  -371.1820   723.3087 H6            1 RES     
   36313 H6        -527.6276  -372.4319   722.2377 H6            1 RES     
   36314 H6        -528.2438  -375.0463   723.6269 H6            1 RES     
   36315 H6        -528.6741  -375.0442   725.3725 H6            1 RES     
   36316 H6        -530.3489  -373.3435   723.3676 H6            1 RES     
   36317 H6        -532.1184  -373.4953   724.8788 H6            1 RES     
   36318 H6        -531.2651  -374.7106   725.8781 H6            1 RES     
   36319 H6        -531.4301  -372.5088   726.9320 H6            1 RES     
   36320 H6        -529.7306  -373.0735   726.7439 H6            1 RES     
   36321 H6        -529.2982  -371.4326   725.0499 H6            1 RES     
   36322 H6        -531.0191  -371.0727   724.7744 H6            1 RES     
   36323 H6        -529.7606  -369.2745   725.9111 H6            1 RES     
   36324 H6        -531.0835  -369.9738   726.9229 H6            1 RES     
   36325 H6        -529.3772  -371.4116   728.0860 H6            1 RES     
   36326 H6        -528.0479  -370.6000   727.1791 H6            1 RES     
   36327 H6        -528.7101  -368.4269   728.2685 H6            1 RES     
   36328 H6        -530.1807  -369.2358   728.9549 H6            1 RES     
   36329 H6        -527.2904  -369.8994   729.6259 H6            1 RES     
   36330 H6        -528.7337  -370.8629   730.1920 H6            1 RES     
   36331 H6        -528.0921  -367.9394   730.8308 H6            1 RES     
   36332 H6        -527.9845  -369.3713   731.9380 H6            1 RES     
   36333 H6        -529.5973  -368.8381   731.3240 H6            1 RES     
   36334 H6        -530.9259  -376.2556   723.7999 H6            1 RES     
   36335 H6        -530.0814  -375.5136   722.4079 H6            1 RES     
   36336 H6        -532.0152  -374.3105   721.6026 H6            1 RES     
   36337 H6        -532.1685  -376.0521   721.6476 H6            1 RES     
   36338 H6        -533.7695  -374.1344   723.4366 H6            1 RES     
   36339 H6        -534.2848  -375.1166   722.0387 H6            1 RES     
   36340 H6        -533.2843  -376.1272   724.7420 H6            1 RES     
   36341 H6        -533.5674  -377.2205   723.3220 H6            1 RES     
   36342 H6        -535.9575  -376.7586   723.2886 H6            1 RES     
   36343 H6        -535.7863  -375.4326   724.4856 H6            1 RES     
   36344 H6        -536.6728  -377.4155   725.6334 H6            1 RES     
   36345 H6        -535.0731  -376.9202   726.2446 H6            1 RES     
   36346 H6        -535.1089  -379.3211   726.1880 H6            1 RES     
   36347 H6        -533.9561  -378.7535   724.9723 H6            1 RES     
   36348 H6        -535.6273  -379.1911   723.1482 H6            1 RES     
   36349 H6        -535.2200  -380.6506   724.1056 H6            1 RES     
   36350 H6        -537.8071  -378.9799   724.3818 H6            1 RES     
   36351 H6        -537.6197  -380.5733   723.5821 H6            1 RES     
   36352 H6        -536.9605  -381.6194   725.7637 H6            1 RES     
   36353 H6        -537.2057  -380.0282   726.5947 H6            1 RES     
   36354 H6        -538.5940  -380.8567   725.8246 H6            1 RES     
   36355 C0        -517.4925  -376.5228   736.0627 C0            1 RES     
   36356 C0        -519.1284  -375.7689   736.4830 C0            1 RES     
   36357 C0        -520.0567  -376.7864   736.6633 C0            1 RES     
   36358 S1        -521.7020  -376.2995   736.7494 S1            1 RES     
   36359 C0        -521.6144  -374.6522   736.5650 C0            1 RES     
   36360 C0        -520.0726  -374.4788   736.4532 C0            1 RES     
   36361 C0        -519.5716  -378.0743   736.1655 C0            1 RES     
   36362 C0        -518.4601  -377.4854   735.3120 C0            1 RES     
   36363 C0        -518.8691  -377.3102   734.0260 C0            1 RES     
   36364 C0        -520.1166  -377.8462   733.7159 C0            1 RES     
   36365 S1        -520.8754  -378.7320   735.0501 S1            1 RES     
   36366 H2        -519.7159  -373.4819   736.2235 H2            1 RES     
   36367 H2        -518.3885  -376.6358   733.3363 H2            1 RES     
   36368 N3        -525.5789  -374.3119   736.2175 N3            1 RES     
   36369 C0        -524.3054  -374.7307   736.2748 C0            1 RES     
   36370 C0        -523.1223  -373.8815   736.5007 C0            1 RES     
   36371 C0        -523.5833  -372.4843   736.6408 C0            1 RES     
   36372 N3        -522.7700  -371.4017   736.8539 N3            1 RES     
   36373 S1        -523.8332  -370.1235   736.9601 S1            1 RES     
   36374 N3        -525.3139  -370.8183   736.7266 N3            1 RES     
   36375 C0        -524.9978  -372.1105   736.5678 C0            1 RES     
   36376 C0        -526.0000  -373.0241   736.3509 C0            1 RES     
   36377 H4        -524.2031  -375.7826   736.1258 H4            1 RES     
   36378 C5        -502.9341  -388.7273   739.9764 C5            1 RES     
   36379 C5        -504.0940  -387.6953   739.8865 C5            1 RES     
   36380 C5        -503.8151  -386.5157   738.8982 C5            1 RES     
   36381 C5        -505.0375  -385.5625   738.4790 C5            1 RES     
   36382 C5        -505.6316  -384.4875   739.4878 C5            1 RES     
   36383 C5        -507.0438  -383.6506   739.2010 C5            1 RES     
   36384 C5        -507.2827  -382.3790   738.1716 C5            1 RES     
   36385 C5        -508.6153  -381.2396   738.0945 C5            1 RES     
   36386 C5        -510.1271  -381.2324   737.3044 C5            1 RES     
   36387 C5        -511.6213  -380.2322   737.1992 C5            1 RES     
   36388 C5        -512.2538  -378.8321   736.2967 C5            1 RES     
   36389 C5        -510.8112  -378.1334   735.9738 C5            1 RES     
   36390 C5        -509.7875  -377.7779   737.1464 C5            1 RES     
   36391 C5        -508.2659  -377.6141   736.7150 C5            1 RES     
   36392 C5        -507.2849  -377.0868   737.8312 C5            1 RES     
   36393 C5        -507.7642  -375.7954   738.5295 C5            1 RES     
   36394 C5        -508.0938  -374.6347   737.5599 C5            1 RES     
   36395 C5        -507.1728  -373.4111   737.6318 C5            1 RES     
   36396 C5        -505.7078  -373.6955   737.3190 C5            1 RES     
   36397 C5        -513.9604  -377.9039   735.9407 C5            1 RES     
   36398 C0        -515.7540  -377.3919   736.5345 C0            1 RES     
   36399 C5        -515.5106  -377.2126   738.0549 C5            1 RES     
   36400 C5        -514.5670  -378.3003   738.7635 C5            1 RES     
   36401 C5        -515.3192  -379.5721   739.1916 C5            1 RES     
   36402 C5        -516.2010  -380.2712   738.1313 C5            1 RES     
   36403 C5        -515.5043  -380.6251   736.7993 C5            1 RES     
   36404 C5        -516.2738  -381.6001   735.9178 C5            1 RES     
   36405 C5        -517.6995  -381.1268   735.6328 C5            1 RES     
   36406 C5        -518.5080  -382.2351   734.9663 C5            1 RES     
   36407 C5        -519.9841  -381.8621   734.9891 C5            1 RES     
   36408 C5        -520.8796  -382.9919   734.5348 C5            1 RES     
   36409 C5        -513.7385  -377.6597   739.9288 C5            1 RES     
   36410 C5        -512.4345  -378.3330   740.5061 C5            1 RES     
   36411 C5        -512.4668  -379.5730   741.4406 C5            1 RES     
   36412 C5        -513.3832  -379.3647   742.6531 C5            1 RES     
   36413 C5        -513.2035  -380.4294   743.7588 C5            1 RES     
   36414 C5        -514.3725  -380.4109   744.7682 C5            1 RES     
   36415 C5        -514.6311  -379.0676   745.4821 C5            1 RES     
   36416 C5        -513.5283  -378.6129   746.4563 C5            1 RES     
   36417 C5        -513.2765  -379.5648   747.6424 C5            1 RES     
   36418 C5        -514.5098  -379.7772   748.5248 C5            1 RES     
   36419 H6        -502.7282  -389.2006   738.9891 H6            1 RES     
   36420 H6        -501.9896  -388.2780   740.3507 H6            1 RES     
   36421 H6        -503.2032  -389.5587   740.6714 H6            1 RES     
   36422 H6        -504.9780  -388.2665   739.5338 H6            1 RES     
   36423 H6        -504.2951  -387.3076   740.9056 H6            1 RES     
   36424 H6        -502.9312  -385.9415   739.2574 H6            1 RES     
   36425 H6        -503.4897  -387.0265   737.9606 H6            1 RES     
   36426 H6        -505.8483  -386.2450   738.1586 H6            1 RES     
   36427 H6        -504.6811  -384.9957   737.5956 H6            1 RES     
   36428 H6        -504.8024  -383.7959   739.7683 H6            1 RES     
   36429 H6        -505.8155  -385.0963   740.4052 H6            1 RES     
   36430 H6        -507.2350  -383.2189   740.2085 H6            1 RES     
   36431 H6        -507.8123  -384.4214   739.0188 H6            1 RES     
   36432 H6        -506.4132  -381.7495   738.4862 H6            1 RES     
   36433 H6        -507.0136  -382.7238   737.1520 H6            1 RES     
   36434 H6        -508.0679  -380.3809   737.6535 H6            1 RES     
   36435 H6        -508.7484  -380.9771   739.1660 H6            1 RES     
   36436 H6        -509.8627  -381.4900   736.2581 H6            1 RES     
   36437 H6        -510.5179  -382.1630   737.7638 H6            1 RES     
   36438 H6        -511.8468  -380.0588   738.2558 H6            1 RES     
   36439 H6        -512.3161  -381.0182   736.8750 H6            1 RES     
   36440 H6        -512.3045  -379.3357   735.3053 H6            1 RES     
   36441 H6        -510.8823  -377.3001   735.2463 H6            1 RES     
   36442 H6        -510.2256  -378.9177   735.4248 H6            1 RES     
   36443 H6        -509.7643  -378.5640   737.9268 H6            1 RES     
   36444 H6        -510.1512  -376.8459   737.6061 H6            1 RES     
   36445 H6        -508.1885  -376.9480   735.8395 H6            1 RES     
   36446 H6        -507.8415  -378.5805   736.3556 H6            1 RES     
   36447 H6        -506.2716  -376.9100   737.3958 H6            1 RES     
   36448 H6        -507.1493  -377.8599   738.6228 H6            1 RES     
   36449 H6        -508.6883  -376.0755   739.0722 H6            1 RES     
   36450 H6        -507.0642  -375.4635   739.3307 H6            1 RES     
   36451 H6        -508.1604  -374.9703   736.5118 H6            1 RES     
   36452 H6        -509.1078  -374.2675   737.8233 H6            1 RES     
   36453 H6        -507.2457  -372.9546   738.6412 H6            1 RES     
   36454 H6        -507.5520  -372.6740   736.8894 H6            1 RES     
   36455 H6        -505.5970  -374.1521   736.3138 H6            1 RES     
   36456 H6        -505.1506  -372.7332   737.3362 H6            1 RES     
   36457 H6        -505.2670  -374.3645   738.0862 H6            1 RES     
   36458 H6        -514.2330  -378.3908   734.9766 H6            1 RES     
   36459 H6        -513.5710  -376.9416   735.5462 H6            1 RES     
   36460 H6        -515.0246  -376.2190   738.0976 H6            1 RES     
   36461 H6        -516.4820  -377.1526   738.5840 H6            1 RES     
   36462 H6        -513.7826  -378.6388   738.1128 H6            1 RES     
   36463 H6        -514.5708  -380.3050   739.5413 H6            1 RES     
   36464 H6        -515.9778  -379.3193   740.0440 H6            1 RES     
   36465 H6        -516.5625  -381.2084   738.6034 H6            1 RES     
   36466 H6        -517.0774  -379.6212   737.9264 H6            1 RES     
   36467 H6        -515.4227  -379.7430   736.1954 H6            1 RES     
   36468 H6        -514.5032  -381.0459   736.9850 H6            1 RES     
   36469 H6        -515.7305  -381.7373   734.9540 H6            1 RES     
   36470 H6        -516.2984  -382.5697   736.4532 H6            1 RES     
   36471 H6        -518.1929  -380.9202   736.6012 H6            1 RES     
   36472 H6        -517.7072  -380.1927   735.0254 H6            1 RES     
   36473 H6        -518.1523  -382.4165   733.9280 H6            1 RES     
   36474 H6        -518.3839  -383.1617   735.5648 H6            1 RES     
   36475 H6        -520.1294  -381.0122   734.3090 H6            1 RES     
   36476 H6        -520.2827  -381.5970   736.0313 H6            1 RES     
   36477 H6        -520.6633  -383.2389   733.4768 H6            1 RES     
   36478 H6        -521.9372  -382.6656   734.6328 H6            1 RES     
   36479 H6        -520.7177  -383.8803   735.1803 H6            1 RES     
   36480 H6        -514.4117  -377.3516   740.7486 H6            1 RES     
   36481 H6        -513.3166  -376.7342   739.4755 H6            1 RES     
   36482 H6        -511.7064  -378.5216   739.6947 H6            1 RES     
   36483 H6        -511.9537  -377.5426   741.1226 H6            1 RES     
   36484 H6        -512.7488  -380.5026   740.9036 H6            1 RES     
   36485 H6        -511.4227  -379.7232   741.8082 H6            1 RES     
   36486 H6        -514.4236  -379.3892   742.2699 H6            1 RES     
   36487 H6        -513.1762  -378.3729   743.1081 H6            1 RES     
   36488 H6        -512.2269  -380.2861   744.2765 H6            1 RES     
   36489 H6        -513.1940  -381.4445   743.3053 H6            1 RES     
   36490 H6        -514.2343  -381.2173   745.5191 H6            1 RES     
   36491 H6        -515.2928  -380.6603   744.1973 H6            1 RES     
   36492 H6        -515.5867  -379.1473   746.0394 H6            1 RES     
   36493 H6        -514.7898  -378.2734   744.7239 H6            1 RES     
   36494 H6        -512.5782  -378.4724   745.8990 H6            1 RES     
   36495 H6        -513.8245  -377.6219   746.8667 H6            1 RES     
   36496 H6        -512.9102  -380.5468   747.2790 H6            1 RES     
   36497 H6        -512.4770  -379.1196   748.2737 H6            1 RES     
   36498 H6        -514.8807  -378.8058   748.9161 H6            1 RES     
   36499 H6        -515.3224  -380.2824   747.9639 H6            1 RES     
   36500 H6        -514.2422  -380.4265   749.3849 H6            1 RES     
   36501 H4          14.7169    11.2213    11.8482 H4            1 RES     
   36502 H4        -527.0557  -372.7406   736.3055 H4            1 RES     
@<TRIPOS>BOND
       1        1        2 1
       2        1        8 1
       3        1       44 1
       4        2        3 1
       5        2        6 1
       6        3        4 1
       7        3        7 1
       8        4        5 1
       9        5        6 1
      10        5       16 1
      11        6       12 1
      12        7        8 1
      13        7       11 1
      14        8        9 1
      15        9       10 1
      16        9       13 1
      17       10       11 1
      18       10    36501 1
      19       14       15 1
      20       14       22 1
      21       15       16 1
      22       15       23 1
      23       16       17 1
      24       17       18 1
      25       17       21 1
      26       18       19 1
      27       19       20 1
      28       20       21 1
      29       21       22 1
      30       22      156 1
      31       24       25 1
      32       24       65 1
      33       24       66 1
      34       24       67 1
      35       25       26 1
      36       25       68 1
      37       25       69 1
      38       26       27 1
      39       26       70 1
      40       26       71 1
      41       27       28 1
      42       27       72 1
      43       27       73 1
      44       28       29 1
      45       28       74 1
      46       28       75 1
      47       29       30 1
      48       29       76 1
      49       29       77 1
      50       30       31 1
      51       30       78 1
      52       30       79 1
      53       31       32 1
      54       31       80 1
      55       31       81 1
      56       32       33 1
      57       32       82 1
      58       32       83 1
      59       33       34 1
      60       33       84 1
      61       33       85 1
      62       34       35 1
      63       34       43 1
      64       34       86 1
      65       35       36 1
      66       35       87 1
      67       35       88 1
      68       36       37 1
      69       36       89 1
      70       36       90 1
      71       37       38 1
      72       37       91 1
      73       37       92 1
      74       38       39 1
      75       38       93 1
      76       38       94 1
      77       39       40 1
      78       39       95 1
      79       39       96 1
      80       40       41 1
      81       40       97 1
      82       40       98 1
      83       41       42 1
      84       41       99 1
      85       41      100 1
      86       42      101 1
      87       42      102 1
      88       42      103 1
      89       43       44 1
      90       43      104 1
      91       43      105 1
      92       44       45 1
      93       45       46 1
      94       45      106 1
      95       45      107 1
      96       46       47 1
      97       46       55 1
      98       46      108 1
      99       47       48 1
     100       47      109 1
     101       47      110 1
     102       48       49 1
     103       48      111 1
     104       48      112 1
     105       49       50 1
     106       49      113 1
     107       49      114 1
     108       50       51 1
     109       50      115 1
     110       50      116 1
     111       51       52 1
     112       51      117 1
     113       51      118 1
     114       52       53 1
     115       52      119 1
     116       52      120 1
     117       53       54 1
     118       53      121 1
     119       53      122 1
     120       54      123 1
     121       54      124 1
     122       54      125 1
     123       55       56 1
     124       55      126 1
     125       55      127 1
     126       56       57 1
     127       56      128 1
     128       56      129 1
     129       57       58 1
     130       57      130 1
     131       57      131 1
     132       58       59 1
     133       58      132 1
     134       58      133 1
     135       59       60 1
     136       59      134 1
     137       59      135 1
     138       60       61 1
     139       60      136 1
     140       60      137 1
     141       61       62 1
     142       61      138 1
     143       61      139 1
     144       62       63 1
     145       62      140 1
     146       62      141 1
     147       63       64 1
     148       63      142 1
     149       63      143 1
     150       64      144 1
     151       64      145 1
     152       64      146 1
     153      147      148 1
     154      147      154 1
     155      147      190 1
     156      148      149 1
     157      148      152 1
     158      149      150 1
     159      149      153 1
     160      150      151 1
     161      151      152 1
     162      151      162 1
     163      152      158 1
     164      153      154 1
     165      153      157 1
     166      154      155 1
     167      155      156 1
     168      155      159 1
     169      156      157 1
     170      160      161 1
     171      160      168 1
     172      161      162 1
     173      161      169 1
     174      162      163 1
     175      163      164 1
     176      163      167 1
     177      164      165 1
     178      165      166 1
     179      166      167 1
     180      167      168 1
     181      168      302 1
     182      170      171 1
     183      170      211 1
     184      170      212 1
     185      170      213 1
     186      171      172 1
     187      171      214 1
     188      171      215 1
     189      172      173 1
     190      172      216 1
     191      172      217 1
     192      173      174 1
     193      173      218 1
     194      173      219 1
     195      174      175 1
     196      174      220 1
     197      174      221 1
     198      175      176 1
     199      175      222 1
     200      175      223 1
     201      176      177 1
     202      176      224 1
     203      176      225 1
     204      177      178 1
     205      177      226 1
     206      177      227 1
     207      178      179 1
     208      178      228 1
     209      178      229 1
     210      179      180 1
     211      179      230 1
     212      179      231 1
     213      180      181 1
     214      180      189 1
     215      180      232 1
     216      181      182 1
     217      181      233 1
     218      181      234 1
     219      182      183 1
     220      182      235 1
     221      182      236 1
     222      183      184 1
     223      183      237 1
     224      183      238 1
     225      184      185 1
     226      184      239 1
     227      184      240 1
     228      185      186 1
     229      185      241 1
     230      185      242 1
     231      186      187 1
     232      186      243 1
     233      186      244 1
     234      187      188 1
     235      187      245 1
     236      187      246 1
     237      188      247 1
     238      188      248 1
     239      188      249 1
     240      189      190 1
     241      189      250 1
     242      189      251 1
     243      190      191 1
     244      191      192 1
     245      191      252 1
     246      191      253 1
     247      192      193 1
     248      192      201 1
     249      192      254 1
     250      193      194 1
     251      193      255 1
     252      193      256 1
     253      194      195 1
     254      194      257 1
     255      194      258 1
     256      195      196 1
     257      195      259 1
     258      195      260 1
     259      196      197 1
     260      196      261 1
     261      196      262 1
     262      197      198 1
     263      197      263 1
     264      197      264 1
     265      198      199 1
     266      198      265 1
     267      198      266 1
     268      199      200 1
     269      199      267 1
     270      199      268 1
     271      200      269 1
     272      200      270 1
     273      200      271 1
     274      201      202 1
     275      201      272 1
     276      201      273 1
     277      202      203 1
     278      202      274 1
     279      202      275 1
     280      203      204 1
     281      203      276 1
     282      203      277 1
     283      204      205 1
     284      204      278 1
     285      204      279 1
     286      205      206 1
     287      205      280 1
     288      205      281 1
     289      206      207 1
     290      206      282 1
     291      206      283 1
     292      207      208 1
     293      207      284 1
     294      207      285 1
     295      208      209 1
     296      208      286 1
     297      208      287 1
     298      209      210 1
     299      209      288 1
     300      209      289 1
     301      210      290 1
     302      210      291 1
     303      210      292 1
     304      293      294 1
     305      293      300 1
     306      293      336 1
     307      294      295 1
     308      294      298 1
     309      295      296 1
     310      295      299 1
     311      296      297 1
     312      297      298 1
     313      297      308 1
     314      298      304 1
     315      299      300 1
     316      299      303 1
     317      300      301 1
     318      301      302 1
     319      301      305 1
     320      302      303 1
     321      306      307 1
     322      306      314 1
     323      307      308 1
     324      307      315 1
     325      308      309 1
     326      309      310 1
     327      309      313 1
     328      310      311 1
     329      311      312 1
     330      312      313 1
     331      313      314 1
     332      314      448 1
     333      316      317 1
     334      316      357 1
     335      316      358 1
     336      316      359 1
     337      317      318 1
     338      317      360 1
     339      317      361 1
     340      318      319 1
     341      318      362 1
     342      318      363 1
     343      319      320 1
     344      319      364 1
     345      319      365 1
     346      320      321 1
     347      320      366 1
     348      320      367 1
     349      321      322 1
     350      321      368 1
     351      321      369 1
     352      322      323 1
     353      322      370 1
     354      322      371 1
     355      323      324 1
     356      323      372 1
     357      323      373 1
     358      324      325 1
     359      324      374 1
     360      324      375 1
     361      325      326 1
     362      325      376 1
     363      325      377 1
     364      326      327 1
     365      326      335 1
     366      326      378 1
     367      327      328 1
     368      327      379 1
     369      327      380 1
     370      328      329 1
     371      328      381 1
     372      328      382 1
     373      329      330 1
     374      329      383 1
     375      329      384 1
     376      330      331 1
     377      330      385 1
     378      330      386 1
     379      331      332 1
     380      331      387 1
     381      331      388 1
     382      332      333 1
     383      332      389 1
     384      332      390 1
     385      333      334 1
     386      333      391 1
     387      333      392 1
     388      334      393 1
     389      334      394 1
     390      334      395 1
     391      335      336 1
     392      335      396 1
     393      335      397 1
     394      336      337 1
     395      337      338 1
     396      337      398 1
     397      337      399 1
     398      338      339 1
     399      338      347 1
     400      338      400 1
     401      339      340 1
     402      339      401 1
     403      339      402 1
     404      340      341 1
     405      340      403 1
     406      340      404 1
     407      341      342 1
     408      341      405 1
     409      341      406 1
     410      342      343 1
     411      342      407 1
     412      342      408 1
     413      343      344 1
     414      343      409 1
     415      343      410 1
     416      344      345 1
     417      344      411 1
     418      344      412 1
     419      345      346 1
     420      345      413 1
     421      345      414 1
     422      346      415 1
     423      346      416 1
     424      346      417 1
     425      347      348 1
     426      347      418 1
     427      347      419 1
     428      348      349 1
     429      348      420 1
     430      348      421 1
     431      349      350 1
     432      349      422 1
     433      349      423 1
     434      350      351 1
     435      350      424 1
     436      350      425 1
     437      351      352 1
     438      351      426 1
     439      351      427 1
     440      352      353 1
     441      352      428 1
     442      352      429 1
     443      353      354 1
     444      353      430 1
     445      353      431 1
     446      354      355 1
     447      354      432 1
     448      354      433 1
     449      355      356 1
     450      355      434 1
     451      355      435 1
     452      356      436 1
     453      356      437 1
     454      356      438 1
     455      439      440 1
     456      439      446 1
     457      439      482 1
     458      440      441 1
     459      440      444 1
     460      441      442 1
     461      441      445 1
     462      442      443 1
     463      443      444 1
     464      443      454 1
     465      444      450 1
     466      445      446 1
     467      445      449 1
     468      446      447 1
     469      447      448 1
     470      447      451 1
     471      448      449 1
     472      452      453 1
     473      452      460 1
     474      453      454 1
     475      453      461 1
     476      454      455 1
     477      455      456 1
     478      455      459 1
     479      456      457 1
     480      457      458 1
     481      458      459 1
     482      459      460 1
     483      460      594 1
     484      462      463 1
     485      462      503 1
     486      462      504 1
     487      462      505 1
     488      463      464 1
     489      463      506 1
     490      463      507 1
     491      464      465 1
     492      464      508 1
     493      464      509 1
     494      465      466 1
     495      465      510 1
     496      465      511 1
     497      466      467 1
     498      466      512 1
     499      466      513 1
     500      467      468 1
     501      467      514 1
     502      467      515 1
     503      468      469 1
     504      468      516 1
     505      468      517 1
     506      469      470 1
     507      469      518 1
     508      469      519 1
     509      470      471 1
     510      470      520 1
     511      470      521 1
     512      471      472 1
     513      471      522 1
     514      471      523 1
     515      472      473 1
     516      472      481 1
     517      472      524 1
     518      473      474 1
     519      473      525 1
     520      473      526 1
     521      474      475 1
     522      474      527 1
     523      474      528 1
     524      475      476 1
     525      475      529 1
     526      475      530 1
     527      476      477 1
     528      476      531 1
     529      476      532 1
     530      477      478 1
     531      477      533 1
     532      477      534 1
     533      478      479 1
     534      478      535 1
     535      478      536 1
     536      479      480 1
     537      479      537 1
     538      479      538 1
     539      480      539 1
     540      480      540 1
     541      480      541 1
     542      481      482 1
     543      481      542 1
     544      481      543 1
     545      482      483 1
     546      483      484 1
     547      483      544 1
     548      483      545 1
     549      484      485 1
     550      484      493 1
     551      484      546 1
     552      485      486 1
     553      485      547 1
     554      485      548 1
     555      486      487 1
     556      486      549 1
     557      486      550 1
     558      487      488 1
     559      487      551 1
     560      487      552 1
     561      488      489 1
     562      488      553 1
     563      488      554 1
     564      489      490 1
     565      489      555 1
     566      489      556 1
     567      490      491 1
     568      490      557 1
     569      490      558 1
     570      491      492 1
     571      491      559 1
     572      491      560 1
     573      492      561 1
     574      492      562 1
     575      492      563 1
     576      493      494 1
     577      493      564 1
     578      493      565 1
     579      494      495 1
     580      494      566 1
     581      494      567 1
     582      495      496 1
     583      495      568 1
     584      495      569 1
     585      496      497 1
     586      496      570 1
     587      496      571 1
     588      497      498 1
     589      497      572 1
     590      497      573 1
     591      498      499 1
     592      498      574 1
     593      498      575 1
     594      499      500 1
     595      499      576 1
     596      499      577 1
     597      500      501 1
     598      500      578 1
     599      500      579 1
     600      501      502 1
     601      501      580 1
     602      501      581 1
     603      502      582 1
     604      502      583 1
     605      502      584 1
     606      585      586 1
     607      585      592 1
     608      585      628 1
     609      586      587 1
     610      586      590 1
     611      587      588 1
     612      587      591 1
     613      588      589 1
     614      589      590 1
     615      589      600 1
     616      590      596 1
     617      591      592 1
     618      591      595 1
     619      592      593 1
     620      593      594 1
     621      593      597 1
     622      594      595 1
     623      598      599 1
     624      598      606 1
     625      599      600 1
     626      599      607 1
     627      600      601 1
     628      601      602 1
     629      601      605 1
     630      602      603 1
     631      603      604 1
     632      604      605 1
     633      605      606 1
     634      606      740 1
     635      608      609 1
     636      608      649 1
     637      608      650 1
     638      608      651 1
     639      609      610 1
     640      609      652 1
     641      609      653 1
     642      610      611 1
     643      610      654 1
     644      610      655 1
     645      611      612 1
     646      611      656 1
     647      611      657 1
     648      612      613 1
     649      612      658 1
     650      612      659 1
     651      613      614 1
     652      613      660 1
     653      613      661 1
     654      614      615 1
     655      614      662 1
     656      614      663 1
     657      615      616 1
     658      615      664 1
     659      615      665 1
     660      616      617 1
     661      616      666 1
     662      616      667 1
     663      617      618 1
     664      617      668 1
     665      617      669 1
     666      618      619 1
     667      618      627 1
     668      618      670 1
     669      619      620 1
     670      619      671 1
     671      619      672 1
     672      620      621 1
     673      620      673 1
     674      620      674 1
     675      621      622 1
     676      621      675 1
     677      621      676 1
     678      622      623 1
     679      622      677 1
     680      622      678 1
     681      623      624 1
     682      623      679 1
     683      623      680 1
     684      624      625 1
     685      624      681 1
     686      624      682 1
     687      625      626 1
     688      625      683 1
     689      625      684 1
     690      626      685 1
     691      626      686 1
     692      626      687 1
     693      627      628 1
     694      627      688 1
     695      627      689 1
     696      628      629 1
     697      629      630 1
     698      629      690 1
     699      629      691 1
     700      630      631 1
     701      630      639 1
     702      630      692 1
     703      631      632 1
     704      631      693 1
     705      631      694 1
     706      632      633 1
     707      632      695 1
     708      632      696 1
     709      633      634 1
     710      633      697 1
     711      633      698 1
     712      634      635 1
     713      634      699 1
     714      634      700 1
     715      635      636 1
     716      635      701 1
     717      635      702 1
     718      636      637 1
     719      636      703 1
     720      636      704 1
     721      637      638 1
     722      637      705 1
     723      637      706 1
     724      638      707 1
     725      638      708 1
     726      638      709 1
     727      639      640 1
     728      639      710 1
     729      639      711 1
     730      640      641 1
     731      640      712 1
     732      640      713 1
     733      641      642 1
     734      641      714 1
     735      641      715 1
     736      642      643 1
     737      642      716 1
     738      642      717 1
     739      643      644 1
     740      643      718 1
     741      643      719 1
     742      644      645 1
     743      644      720 1
     744      644      721 1
     745      645      646 1
     746      645      722 1
     747      645      723 1
     748      646      647 1
     749      646      724 1
     750      646      725 1
     751      647      648 1
     752      647      726 1
     753      647      727 1
     754      648      728 1
     755      648      729 1
     756      648      730 1
     757      731      732 1
     758      731      738 1
     759      731      774 1
     760      732      733 1
     761      732      736 1
     762      733      734 1
     763      733      737 1
     764      734      735 1
     765      735      736 1
     766      735      746 1
     767      736      742 1
     768      737      738 1
     769      737      741 1
     770      738      739 1
     771      739      740 1
     772      739      743 1
     773      740      741 1
     774      744      745 1
     775      744      752 1
     776      745      746 1
     777      745      753 1
     778      746      747 1
     779      747      748 1
     780      747      751 1
     781      748      749 1
     782      749      750 1
     783      750      751 1
     784      751      752 1
     785      752      886 1
     786      754      755 1
     787      754      795 1
     788      754      796 1
     789      754      797 1
     790      755      756 1
     791      755      798 1
     792      755      799 1
     793      756      757 1
     794      756      800 1
     795      756      801 1
     796      757      758 1
     797      757      802 1
     798      757      803 1
     799      758      759 1
     800      758      804 1
     801      758      805 1
     802      759      760 1
     803      759      806 1
     804      759      807 1
     805      760      761 1
     806      760      808 1
     807      760      809 1
     808      761      762 1
     809      761      810 1
     810      761      811 1
     811      762      763 1
     812      762      812 1
     813      762      813 1
     814      763      764 1
     815      763      814 1
     816      763      815 1
     817      764      765 1
     818      764      773 1
     819      764      816 1
     820      765      766 1
     821      765      817 1
     822      765      818 1
     823      766      767 1
     824      766      819 1
     825      766      820 1
     826      767      768 1
     827      767      821 1
     828      767      822 1
     829      768      769 1
     830      768      823 1
     831      768      824 1
     832      769      770 1
     833      769      825 1
     834      769      826 1
     835      770      771 1
     836      770      827 1
     837      770      828 1
     838      771      772 1
     839      771      829 1
     840      771      830 1
     841      772      831 1
     842      772      832 1
     843      772      833 1
     844      773      774 1
     845      773      834 1
     846      773      835 1
     847      774      775 1
     848      775      776 1
     849      775      836 1
     850      775      837 1
     851      776      777 1
     852      776      785 1
     853      776      838 1
     854      777      778 1
     855      777      839 1
     856      777      840 1
     857      778      779 1
     858      778      841 1
     859      778      842 1
     860      779      780 1
     861      779      843 1
     862      779      844 1
     863      780      781 1
     864      780      845 1
     865      780      846 1
     866      781      782 1
     867      781      847 1
     868      781      848 1
     869      782      783 1
     870      782      849 1
     871      782      850 1
     872      783      784 1
     873      783      851 1
     874      783      852 1
     875      784      853 1
     876      784      854 1
     877      784      855 1
     878      785      786 1
     879      785      856 1
     880      785      857 1
     881      786      787 1
     882      786      858 1
     883      786      859 1
     884      787      788 1
     885      787      860 1
     886      787      861 1
     887      788      789 1
     888      788      862 1
     889      788      863 1
     890      789      790 1
     891      789      864 1
     892      789      865 1
     893      790      791 1
     894      790      866 1
     895      790      867 1
     896      791      792 1
     897      791      868 1
     898      791      869 1
     899      792      793 1
     900      792      870 1
     901      792      871 1
     902      793      794 1
     903      793      872 1
     904      793      873 1
     905      794      874 1
     906      794      875 1
     907      794      876 1
     908      877      878 1
     909      877      884 1
     910      877      920 1
     911      878      879 1
     912      878      882 1
     913      879      880 1
     914      879      883 1
     915      880      881 1
     916      881      882 1
     917      881      892 1
     918      882      888 1
     919      883      884 1
     920      883      887 1
     921      884      885 1
     922      885      886 1
     923      885      889 1
     924      886      887 1
     925      890      891 1
     926      890      898 1
     927      891      892 1
     928      891      899 1
     929      892      893 1
     930      893      894 1
     931      893      897 1
     932      894      895 1
     933      895      896 1
     934      896      897 1
     935      897      898 1
     936      898     1032 1
     937      900      901 1
     938      900      941 1
     939      900      942 1
     940      900      943 1
     941      901      902 1
     942      901      944 1
     943      901      945 1
     944      902      903 1
     945      902      946 1
     946      902      947 1
     947      903      904 1
     948      903      948 1
     949      903      949 1
     950      904      905 1
     951      904      950 1
     952      904      951 1
     953      905      906 1
     954      905      952 1
     955      905      953 1
     956      906      907 1
     957      906      954 1
     958      906      955 1
     959      907      908 1
     960      907      956 1
     961      907      957 1
     962      908      909 1
     963      908      958 1
     964      908      959 1
     965      909      910 1
     966      909      960 1
     967      909      961 1
     968      910      911 1
     969      910      919 1
     970      910      962 1
     971      911      912 1
     972      911      963 1
     973      911      964 1
     974      912      913 1
     975      912      965 1
     976      912      966 1
     977      913      914 1
     978      913      967 1
     979      913      968 1
     980      914      915 1
     981      914      969 1
     982      914      970 1
     983      915      916 1
     984      915      971 1
     985      915      972 1
     986      916      917 1
     987      916      973 1
     988      916      974 1
     989      917      918 1
     990      917      975 1
     991      917      976 1
     992      918      977 1
     993      918      978 1
     994      918      979 1
     995      919      920 1
     996      919      980 1
     997      919      981 1
     998      920      921 1
     999      921      922 1
    1000      921      982 1
    1001      921      983 1
    1002      922      923 1
    1003      922      931 1
    1004      922      984 1
    1005      923      924 1
    1006      923      985 1
    1007      923      986 1
    1008      924      925 1
    1009      924      987 1
    1010      924      988 1
    1011      925      926 1
    1012      925      989 1
    1013      925      990 1
    1014      926      927 1
    1015      926      991 1
    1016      926      992 1
    1017      927      928 1
    1018      927      993 1
    1019      927      994 1
    1020      928      929 1
    1021      928      995 1
    1022      928      996 1
    1023      929      930 1
    1024      929      997 1
    1025      929      998 1
    1026      930      999 1
    1027      930     1000 1
    1028      930     1001 1
    1029      931      932 1
    1030      931     1002 1
    1031      931     1003 1
    1032      932      933 1
    1033      932     1004 1
    1034      932     1005 1
    1035      933      934 1
    1036      933     1006 1
    1037      933     1007 1
    1038      934      935 1
    1039      934     1008 1
    1040      934     1009 1
    1041      935      936 1
    1042      935     1010 1
    1043      935     1011 1
    1044      936      937 1
    1045      936     1012 1
    1046      936     1013 1
    1047      937      938 1
    1048      937     1014 1
    1049      937     1015 1
    1050      938      939 1
    1051      938     1016 1
    1052      938     1017 1
    1053      939      940 1
    1054      939     1018 1
    1055      939     1019 1
    1056      940     1020 1
    1057      940     1021 1
    1058      940     1022 1
    1059     1023     1024 1
    1060     1023     1030 1
    1061     1023     1066 1
    1062     1024     1025 1
    1063     1024     1028 1
    1064     1025     1026 1
    1065     1025     1029 1
    1066     1026     1027 1
    1067     1027     1028 1
    1068     1027     1038 1
    1069     1028     1034 1
    1070     1029     1030 1
    1071     1029     1033 1
    1072     1030     1031 1
    1073     1031     1032 1
    1074     1031     1035 1
    1075     1032     1033 1
    1076     1036     1037 1
    1077     1036     1044 1
    1078     1037     1038 1
    1079     1037     1045 1
    1080     1038     1039 1
    1081     1039     1040 1
    1082     1039     1043 1
    1083     1040     1041 1
    1084     1041     1042 1
    1085     1042     1043 1
    1086     1043     1044 1
    1087     1044     1178 1
    1088     1046     1047 1
    1089     1046     1087 1
    1090     1046     1088 1
    1091     1046     1089 1
    1092     1047     1048 1
    1093     1047     1090 1
    1094     1047     1091 1
    1095     1048     1049 1
    1096     1048     1092 1
    1097     1048     1093 1
    1098     1049     1050 1
    1099     1049     1094 1
    1100     1049     1095 1
    1101     1050     1051 1
    1102     1050     1096 1
    1103     1050     1097 1
    1104     1051     1052 1
    1105     1051     1098 1
    1106     1051     1099 1
    1107     1052     1053 1
    1108     1052     1100 1
    1109     1052     1101 1
    1110     1053     1054 1
    1111     1053     1102 1
    1112     1053     1103 1
    1113     1054     1055 1
    1114     1054     1104 1
    1115     1054     1105 1
    1116     1055     1056 1
    1117     1055     1106 1
    1118     1055     1107 1
    1119     1056     1057 1
    1120     1056     1065 1
    1121     1056     1108 1
    1122     1057     1058 1
    1123     1057     1109 1
    1124     1057     1110 1
    1125     1058     1059 1
    1126     1058     1111 1
    1127     1058     1112 1
    1128     1059     1060 1
    1129     1059     1113 1
    1130     1059     1114 1
    1131     1060     1061 1
    1132     1060     1115 1
    1133     1060     1116 1
    1134     1061     1062 1
    1135     1061     1117 1
    1136     1061     1118 1
    1137     1062     1063 1
    1138     1062     1119 1
    1139     1062     1120 1
    1140     1063     1064 1
    1141     1063     1121 1
    1142     1063     1122 1
    1143     1064     1123 1
    1144     1064     1124 1
    1145     1064     1125 1
    1146     1065     1066 1
    1147     1065     1126 1
    1148     1065     1127 1
    1149     1066     1067 1
    1150     1067     1068 1
    1151     1067     1128 1
    1152     1067     1129 1
    1153     1068     1069 1
    1154     1068     1077 1
    1155     1068     1130 1
    1156     1069     1070 1
    1157     1069     1131 1
    1158     1069     1132 1
    1159     1070     1071 1
    1160     1070     1133 1
    1161     1070     1134 1
    1162     1071     1072 1
    1163     1071     1135 1
    1164     1071     1136 1
    1165     1072     1073 1
    1166     1072     1137 1
    1167     1072     1138 1
    1168     1073     1074 1
    1169     1073     1139 1
    1170     1073     1140 1
    1171     1074     1075 1
    1172     1074     1141 1
    1173     1074     1142 1
    1174     1075     1076 1
    1175     1075     1143 1
    1176     1075     1144 1
    1177     1076     1145 1
    1178     1076     1146 1
    1179     1076     1147 1
    1180     1077     1078 1
    1181     1077     1148 1
    1182     1077     1149 1
    1183     1078     1079 1
    1184     1078     1150 1
    1185     1078     1151 1
    1186     1079     1080 1
    1187     1079     1152 1
    1188     1079     1153 1
    1189     1080     1081 1
    1190     1080     1154 1
    1191     1080     1155 1
    1192     1081     1082 1
    1193     1081     1156 1
    1194     1081     1157 1
    1195     1082     1083 1
    1196     1082     1158 1
    1197     1082     1159 1
    1198     1083     1084 1
    1199     1083     1160 1
    1200     1083     1161 1
    1201     1084     1085 1
    1202     1084     1162 1
    1203     1084     1163 1
    1204     1085     1086 1
    1205     1085     1164 1
    1206     1085     1165 1
    1207     1086     1166 1
    1208     1086     1167 1
    1209     1086     1168 1
    1210     1169     1170 1
    1211     1169     1176 1
    1212     1169     1212 1
    1213     1170     1171 1
    1214     1170     1174 1
    1215     1171     1172 1
    1216     1171     1175 1
    1217     1172     1173 1
    1218     1173     1174 1
    1219     1173     1184 1
    1220     1174     1180 1
    1221     1175     1176 1
    1222     1175     1179 1
    1223     1176     1177 1
    1224     1177     1178 1
    1225     1177     1181 1
    1226     1178     1179 1
    1227     1182     1183 1
    1228     1182     1190 1
    1229     1183     1184 1
    1230     1183     1191 1
    1231     1184     1185 1
    1232     1185     1186 1
    1233     1185     1189 1
    1234     1186     1187 1
    1235     1187     1188 1
    1236     1188     1189 1
    1237     1189     1190 1
    1238     1190     1324 1
    1239     1192     1193 1
    1240     1192     1233 1
    1241     1192     1234 1
    1242     1192     1235 1
    1243     1193     1194 1
    1244     1193     1236 1
    1245     1193     1237 1
    1246     1194     1195 1
    1247     1194     1238 1
    1248     1194     1239 1
    1249     1195     1196 1
    1250     1195     1240 1
    1251     1195     1241 1
    1252     1196     1197 1
    1253     1196     1242 1
    1254     1196     1243 1
    1255     1197     1198 1
    1256     1197     1244 1
    1257     1197     1245 1
    1258     1198     1199 1
    1259     1198     1246 1
    1260     1198     1247 1
    1261     1199     1200 1
    1262     1199     1248 1
    1263     1199     1249 1
    1264     1200     1201 1
    1265     1200     1250 1
    1266     1200     1251 1
    1267     1201     1202 1
    1268     1201     1252 1
    1269     1201     1253 1
    1270     1202     1203 1
    1271     1202     1211 1
    1272     1202     1254 1
    1273     1203     1204 1
    1274     1203     1255 1
    1275     1203     1256 1
    1276     1204     1205 1
    1277     1204     1257 1
    1278     1204     1258 1
    1279     1205     1206 1
    1280     1205     1259 1
    1281     1205     1260 1
    1282     1206     1207 1
    1283     1206     1261 1
    1284     1206     1262 1
    1285     1207     1208 1
    1286     1207     1263 1
    1287     1207     1264 1
    1288     1208     1209 1
    1289     1208     1265 1
    1290     1208     1266 1
    1291     1209     1210 1
    1292     1209     1267 1
    1293     1209     1268 1
    1294     1210     1269 1
    1295     1210     1270 1
    1296     1210     1271 1
    1297     1211     1212 1
    1298     1211     1272 1
    1299     1211     1273 1
    1300     1212     1213 1
    1301     1213     1214 1
    1302     1213     1274 1
    1303     1213     1275 1
    1304     1214     1215 1
    1305     1214     1223 1
    1306     1214     1276 1
    1307     1215     1216 1
    1308     1215     1277 1
    1309     1215     1278 1
    1310     1216     1217 1
    1311     1216     1279 1
    1312     1216     1280 1
    1313     1217     1218 1
    1314     1217     1281 1
    1315     1217     1282 1
    1316     1218     1219 1
    1317     1218     1283 1
    1318     1218     1284 1
    1319     1219     1220 1
    1320     1219     1285 1
    1321     1219     1286 1
    1322     1220     1221 1
    1323     1220     1287 1
    1324     1220     1288 1
    1325     1221     1222 1
    1326     1221     1289 1
    1327     1221     1290 1
    1328     1222     1291 1
    1329     1222     1292 1
    1330     1222     1293 1
    1331     1223     1224 1
    1332     1223     1294 1
    1333     1223     1295 1
    1334     1224     1225 1
    1335     1224     1296 1
    1336     1224     1297 1
    1337     1225     1226 1
    1338     1225     1298 1
    1339     1225     1299 1
    1340     1226     1227 1
    1341     1226     1300 1
    1342     1226     1301 1
    1343     1227     1228 1
    1344     1227     1302 1
    1345     1227     1303 1
    1346     1228     1229 1
    1347     1228     1304 1
    1348     1228     1305 1
    1349     1229     1230 1
    1350     1229     1306 1
    1351     1229     1307 1
    1352     1230     1231 1
    1353     1230     1308 1
    1354     1230     1309 1
    1355     1231     1232 1
    1356     1231     1310 1
    1357     1231     1311 1
    1358     1232     1312 1
    1359     1232     1313 1
    1360     1232     1314 1
    1361     1315     1316 1
    1362     1315     1322 1
    1363     1315     1358 1
    1364     1316     1317 1
    1365     1316     1320 1
    1366     1317     1318 1
    1367     1317     1321 1
    1368     1318     1319 1
    1369     1319     1320 1
    1370     1319     1330 1
    1371     1320     1326 1
    1372     1321     1322 1
    1373     1321     1325 1
    1374     1322     1323 1
    1375     1323     1324 1
    1376     1323     1327 1
    1377     1324     1325 1
    1378     1328     1329 1
    1379     1328     1336 1
    1380     1329     1330 1
    1381     1329     1337 1
    1382     1330     1331 1
    1383     1331     1332 1
    1384     1331     1335 1
    1385     1332     1333 1
    1386     1333     1334 1
    1387     1334     1335 1
    1388     1335     1336 1
    1389     1336     1470 1
    1390     1338     1339 1
    1391     1338     1379 1
    1392     1338     1380 1
    1393     1338     1381 1
    1394     1339     1340 1
    1395     1339     1382 1
    1396     1339     1383 1
    1397     1340     1341 1
    1398     1340     1384 1
    1399     1340     1385 1
    1400     1341     1342 1
    1401     1341     1386 1
    1402     1341     1387 1
    1403     1342     1343 1
    1404     1342     1388 1
    1405     1342     1389 1
    1406     1343     1344 1
    1407     1343     1390 1
    1408     1343     1391 1
    1409     1344     1345 1
    1410     1344     1392 1
    1411     1344     1393 1
    1412     1345     1346 1
    1413     1345     1394 1
    1414     1345     1395 1
    1415     1346     1347 1
    1416     1346     1396 1
    1417     1346     1397 1
    1418     1347     1348 1
    1419     1347     1398 1
    1420     1347     1399 1
    1421     1348     1349 1
    1422     1348     1357 1
    1423     1348     1400 1
    1424     1349     1350 1
    1425     1349     1401 1
    1426     1349     1402 1
    1427     1350     1351 1
    1428     1350     1403 1
    1429     1350     1404 1
    1430     1351     1352 1
    1431     1351     1405 1
    1432     1351     1406 1
    1433     1352     1353 1
    1434     1352     1407 1
    1435     1352     1408 1
    1436     1353     1354 1
    1437     1353     1409 1
    1438     1353     1410 1
    1439     1354     1355 1
    1440     1354     1411 1
    1441     1354     1412 1
    1442     1355     1356 1
    1443     1355     1413 1
    1444     1355     1414 1
    1445     1356     1415 1
    1446     1356     1416 1
    1447     1356     1417 1
    1448     1357     1358 1
    1449     1357     1418 1
    1450     1357     1419 1
    1451     1358     1359 1
    1452     1359     1360 1
    1453     1359     1420 1
    1454     1359     1421 1
    1455     1360     1361 1
    1456     1360     1369 1
    1457     1360     1422 1
    1458     1361     1362 1
    1459     1361     1423 1
    1460     1361     1424 1
    1461     1362     1363 1
    1462     1362     1425 1
    1463     1362     1426 1
    1464     1363     1364 1
    1465     1363     1427 1
    1466     1363     1428 1
    1467     1364     1365 1
    1468     1364     1429 1
    1469     1364     1430 1
    1470     1365     1366 1
    1471     1365     1431 1
    1472     1365     1432 1
    1473     1366     1367 1
    1474     1366     1433 1
    1475     1366     1434 1
    1476     1367     1368 1
    1477     1367     1435 1
    1478     1367     1436 1
    1479     1368     1437 1
    1480     1368     1438 1
    1481     1368     1439 1
    1482     1369     1370 1
    1483     1369     1440 1
    1484     1369     1441 1
    1485     1370     1371 1
    1486     1370     1442 1
    1487     1370     1443 1
    1488     1371     1372 1
    1489     1371     1444 1
    1490     1371     1445 1
    1491     1372     1373 1
    1492     1372     1446 1
    1493     1372     1447 1
    1494     1373     1374 1
    1495     1373     1448 1
    1496     1373     1449 1
    1497     1374     1375 1
    1498     1374     1450 1
    1499     1374     1451 1
    1500     1375     1376 1
    1501     1375     1452 1
    1502     1375     1453 1
    1503     1376     1377 1
    1504     1376     1454 1
    1505     1376     1455 1
    1506     1377     1378 1
    1507     1377     1456 1
    1508     1377     1457 1
    1509     1378     1458 1
    1510     1378     1459 1
    1511     1378     1460 1
    1512     1461     1462 1
    1513     1461     1468 1
    1514     1461     1504 1
    1515     1462     1463 1
    1516     1462     1466 1
    1517     1463     1464 1
    1518     1463     1467 1
    1519     1464     1465 1
    1520     1465     1466 1
    1521     1465     1476 1
    1522     1466     1472 1
    1523     1467     1468 1
    1524     1467     1471 1
    1525     1468     1469 1
    1526     1469     1470 1
    1527     1469     1473 1
    1528     1470     1471 1
    1529     1474     1475 1
    1530     1474     1482 1
    1531     1475     1476 1
    1532     1475     1483 1
    1533     1476     1477 1
    1534     1477     1478 1
    1535     1477     1481 1
    1536     1478     1479 1
    1537     1479     1480 1
    1538     1480     1481 1
    1539     1481     1482 1
    1540     1482     1616 1
    1541     1484     1485 1
    1542     1484     1525 1
    1543     1484     1526 1
    1544     1484     1527 1
    1545     1485     1486 1
    1546     1485     1528 1
    1547     1485     1529 1
    1548     1486     1487 1
    1549     1486     1530 1
    1550     1486     1531 1
    1551     1487     1488 1
    1552     1487     1532 1
    1553     1487     1533 1
    1554     1488     1489 1
    1555     1488     1534 1
    1556     1488     1535 1
    1557     1489     1490 1
    1558     1489     1536 1
    1559     1489     1537 1
    1560     1490     1491 1
    1561     1490     1538 1
    1562     1490     1539 1
    1563     1491     1492 1
    1564     1491     1540 1
    1565     1491     1541 1
    1566     1492     1493 1
    1567     1492     1542 1
    1568     1492     1543 1
    1569     1493     1494 1
    1570     1493     1544 1
    1571     1493     1545 1
    1572     1494     1495 1
    1573     1494     1503 1
    1574     1494     1546 1
    1575     1495     1496 1
    1576     1495     1547 1
    1577     1495     1548 1
    1578     1496     1497 1
    1579     1496     1549 1
    1580     1496     1550 1
    1581     1497     1498 1
    1582     1497     1551 1
    1583     1497     1552 1
    1584     1498     1499 1
    1585     1498     1553 1
    1586     1498     1554 1
    1587     1499     1500 1
    1588     1499     1555 1
    1589     1499     1556 1
    1590     1500     1501 1
    1591     1500     1557 1
    1592     1500     1558 1
    1593     1501     1502 1
    1594     1501     1559 1
    1595     1501     1560 1
    1596     1502     1561 1
    1597     1502     1562 1
    1598     1502     1563 1
    1599     1503     1504 1
    1600     1503     1564 1
    1601     1503     1565 1
    1602     1504     1505 1
    1603     1505     1506 1
    1604     1505     1566 1
    1605     1505     1567 1
    1606     1506     1507 1
    1607     1506     1515 1
    1608     1506     1568 1
    1609     1507     1508 1
    1610     1507     1569 1
    1611     1507     1570 1
    1612     1508     1509 1
    1613     1508     1571 1
    1614     1508     1572 1
    1615     1509     1510 1
    1616     1509     1573 1
    1617     1509     1574 1
    1618     1510     1511 1
    1619     1510     1575 1
    1620     1510     1576 1
    1621     1511     1512 1
    1622     1511     1577 1
    1623     1511     1578 1
    1624     1512     1513 1
    1625     1512     1579 1
    1626     1512     1580 1
    1627     1513     1514 1
    1628     1513     1581 1
    1629     1513     1582 1
    1630     1514     1583 1
    1631     1514     1584 1
    1632     1514     1585 1
    1633     1515     1516 1
    1634     1515     1586 1
    1635     1515     1587 1
    1636     1516     1517 1
    1637     1516     1588 1
    1638     1516     1589 1
    1639     1517     1518 1
    1640     1517     1590 1
    1641     1517     1591 1
    1642     1518     1519 1
    1643     1518     1592 1
    1644     1518     1593 1
    1645     1519     1520 1
    1646     1519     1594 1
    1647     1519     1595 1
    1648     1520     1521 1
    1649     1520     1596 1
    1650     1520     1597 1
    1651     1521     1522 1
    1652     1521     1598 1
    1653     1521     1599 1
    1654     1522     1523 1
    1655     1522     1600 1
    1656     1522     1601 1
    1657     1523     1524 1
    1658     1523     1602 1
    1659     1523     1603 1
    1660     1524     1604 1
    1661     1524     1605 1
    1662     1524     1606 1
    1663     1607     1608 1
    1664     1607     1614 1
    1665     1607     1650 1
    1666     1608     1609 1
    1667     1608     1612 1
    1668     1609     1610 1
    1669     1609     1613 1
    1670     1610     1611 1
    1671     1611     1612 1
    1672     1611     1622 1
    1673     1612     1618 1
    1674     1613     1614 1
    1675     1613     1617 1
    1676     1614     1615 1
    1677     1615     1616 1
    1678     1615     1619 1
    1679     1616     1617 1
    1680     1620     1621 1
    1681     1620     1628 1
    1682     1621     1622 1
    1683     1621     1629 1
    1684     1622     1623 1
    1685     1623     1624 1
    1686     1623     1627 1
    1687     1624     1625 1
    1688     1625     1626 1
    1689     1626     1627 1
    1690     1627     1628 1
    1691     1628     1762 1
    1692     1630     1631 1
    1693     1630     1671 1
    1694     1630     1672 1
    1695     1630     1673 1
    1696     1631     1632 1
    1697     1631     1674 1
    1698     1631     1675 1
    1699     1632     1633 1
    1700     1632     1676 1
    1701     1632     1677 1
    1702     1633     1634 1
    1703     1633     1678 1
    1704     1633     1679 1
    1705     1634     1635 1
    1706     1634     1680 1
    1707     1634     1681 1
    1708     1635     1636 1
    1709     1635     1682 1
    1710     1635     1683 1
    1711     1636     1637 1
    1712     1636     1684 1
    1713     1636     1685 1
    1714     1637     1638 1
    1715     1637     1686 1
    1716     1637     1687 1
    1717     1638     1639 1
    1718     1638     1688 1
    1719     1638     1689 1
    1720     1639     1640 1
    1721     1639     1690 1
    1722     1639     1691 1
    1723     1640     1641 1
    1724     1640     1649 1
    1725     1640     1692 1
    1726     1641     1642 1
    1727     1641     1693 1
    1728     1641     1694 1
    1729     1642     1643 1
    1730     1642     1695 1
    1731     1642     1696 1
    1732     1643     1644 1
    1733     1643     1697 1
    1734     1643     1698 1
    1735     1644     1645 1
    1736     1644     1699 1
    1737     1644     1700 1
    1738     1645     1646 1
    1739     1645     1701 1
    1740     1645     1702 1
    1741     1646     1647 1
    1742     1646     1703 1
    1743     1646     1704 1
    1744     1647     1648 1
    1745     1647     1705 1
    1746     1647     1706 1
    1747     1648     1707 1
    1748     1648     1708 1
    1749     1648     1709 1
    1750     1649     1650 1
    1751     1649     1710 1
    1752     1649     1711 1
    1753     1650     1651 1
    1754     1651     1652 1
    1755     1651     1712 1
    1756     1651     1713 1
    1757     1652     1653 1
    1758     1652     1661 1
    1759     1652     1714 1
    1760     1653     1654 1
    1761     1653     1715 1
    1762     1653     1716 1
    1763     1654     1655 1
    1764     1654     1717 1
    1765     1654     1718 1
    1766     1655     1656 1
    1767     1655     1719 1
    1768     1655     1720 1
    1769     1656     1657 1
    1770     1656     1721 1
    1771     1656     1722 1
    1772     1657     1658 1
    1773     1657     1723 1
    1774     1657     1724 1
    1775     1658     1659 1
    1776     1658     1725 1
    1777     1658     1726 1
    1778     1659     1660 1
    1779     1659     1727 1
    1780     1659     1728 1
    1781     1660     1729 1
    1782     1660     1730 1
    1783     1660     1731 1
    1784     1661     1662 1
    1785     1661     1732 1
    1786     1661     1733 1
    1787     1662     1663 1
    1788     1662     1734 1
    1789     1662     1735 1
    1790     1663     1664 1
    1791     1663     1736 1
    1792     1663     1737 1
    1793     1664     1665 1
    1794     1664     1738 1
    1795     1664     1739 1
    1796     1665     1666 1
    1797     1665     1740 1
    1798     1665     1741 1
    1799     1666     1667 1
    1800     1666     1742 1
    1801     1666     1743 1
    1802     1667     1668 1
    1803     1667     1744 1
    1804     1667     1745 1
    1805     1668     1669 1
    1806     1668     1746 1
    1807     1668     1747 1
    1808     1669     1670 1
    1809     1669     1748 1
    1810     1669     1749 1
    1811     1670     1750 1
    1812     1670     1751 1
    1813     1670     1752 1
    1814     1753     1754 1
    1815     1753     1760 1
    1816     1753     1796 1
    1817     1754     1755 1
    1818     1754     1758 1
    1819     1755     1756 1
    1820     1755     1759 1
    1821     1756     1757 1
    1822     1757     1758 1
    1823     1757     1768 1
    1824     1758     1764 1
    1825     1759     1760 1
    1826     1759     1763 1
    1827     1760     1761 1
    1828     1761     1762 1
    1829     1761     1765 1
    1830     1762     1763 1
    1831     1766     1767 1
    1832     1766     1774 1
    1833     1767     1768 1
    1834     1767     1775 1
    1835     1768     1769 1
    1836     1769     1770 1
    1837     1769     1773 1
    1838     1770     1771 1
    1839     1771     1772 1
    1840     1772     1773 1
    1841     1773     1774 1
    1842     1774     1908 1
    1843     1776     1777 1
    1844     1776     1817 1
    1845     1776     1818 1
    1846     1776     1819 1
    1847     1777     1778 1
    1848     1777     1820 1
    1849     1777     1821 1
    1850     1778     1779 1
    1851     1778     1822 1
    1852     1778     1823 1
    1853     1779     1780 1
    1854     1779     1824 1
    1855     1779     1825 1
    1856     1780     1781 1
    1857     1780     1826 1
    1858     1780     1827 1
    1859     1781     1782 1
    1860     1781     1828 1
    1861     1781     1829 1
    1862     1782     1783 1
    1863     1782     1830 1
    1864     1782     1831 1
    1865     1783     1784 1
    1866     1783     1832 1
    1867     1783     1833 1
    1868     1784     1785 1
    1869     1784     1834 1
    1870     1784     1835 1
    1871     1785     1786 1
    1872     1785     1836 1
    1873     1785     1837 1
    1874     1786     1787 1
    1875     1786     1795 1
    1876     1786     1838 1
    1877     1787     1788 1
    1878     1787     1839 1
    1879     1787     1840 1
    1880     1788     1789 1
    1881     1788     1841 1
    1882     1788     1842 1
    1883     1789     1790 1
    1884     1789     1843 1
    1885     1789     1844 1
    1886     1790     1791 1
    1887     1790     1845 1
    1888     1790     1846 1
    1889     1791     1792 1
    1890     1791     1847 1
    1891     1791     1848 1
    1892     1792     1793 1
    1893     1792     1849 1
    1894     1792     1850 1
    1895     1793     1794 1
    1896     1793     1851 1
    1897     1793     1852 1
    1898     1794     1853 1
    1899     1794     1854 1
    1900     1794     1855 1
    1901     1795     1796 1
    1902     1795     1856 1
    1903     1795     1857 1
    1904     1796     1797 1
    1905     1797     1798 1
    1906     1797     1858 1
    1907     1797     1859 1
    1908     1798     1799 1
    1909     1798     1807 1
    1910     1798     1860 1
    1911     1799     1800 1
    1912     1799     1861 1
    1913     1799     1862 1
    1914     1800     1801 1
    1915     1800     1863 1
    1916     1800     1864 1
    1917     1801     1802 1
    1918     1801     1865 1
    1919     1801     1866 1
    1920     1802     1803 1
    1921     1802     1867 1
    1922     1802     1868 1
    1923     1803     1804 1
    1924     1803     1869 1
    1925     1803     1870 1
    1926     1804     1805 1
    1927     1804     1871 1
    1928     1804     1872 1
    1929     1805     1806 1
    1930     1805     1873 1
    1931     1805     1874 1
    1932     1806     1875 1
    1933     1806     1876 1
    1934     1806     1877 1
    1935     1807     1808 1
    1936     1807     1878 1
    1937     1807     1879 1
    1938     1808     1809 1
    1939     1808     1880 1
    1940     1808     1881 1
    1941     1809     1810 1
    1942     1809     1882 1
    1943     1809     1883 1
    1944     1810     1811 1
    1945     1810     1884 1
    1946     1810     1885 1
    1947     1811     1812 1
    1948     1811     1886 1
    1949     1811     1887 1
    1950     1812     1813 1
    1951     1812     1888 1
    1952     1812     1889 1
    1953     1813     1814 1
    1954     1813     1890 1
    1955     1813     1891 1
    1956     1814     1815 1
    1957     1814     1892 1
    1958     1814     1893 1
    1959     1815     1816 1
    1960     1815     1894 1
    1961     1815     1895 1
    1962     1816     1896 1
    1963     1816     1897 1
    1964     1816     1898 1
    1965     1899     1900 1
    1966     1899     1906 1
    1967     1899     1942 1
    1968     1900     1901 1
    1969     1900     1904 1
    1970     1901     1902 1
    1971     1901     1905 1
    1972     1902     1903 1
    1973     1903     1904 1
    1974     1903     1914 1
    1975     1904     1910 1
    1976     1905     1906 1
    1977     1905     1909 1
    1978     1906     1907 1
    1979     1907     1908 1
    1980     1907     1911 1
    1981     1908     1909 1
    1982     1912     1913 1
    1983     1912     1920 1
    1984     1913     1914 1
    1985     1913     1921 1
    1986     1914     1915 1
    1987     1915     1916 1
    1988     1915     1919 1
    1989     1916     1917 1
    1990     1917     1918 1
    1991     1918     1919 1
    1992     1919     1920 1
    1993     1920     2054 1
    1994     1922     1923 1
    1995     1922     1963 1
    1996     1922     1964 1
    1997     1922     1965 1
    1998     1923     1924 1
    1999     1923     1966 1
    2000     1923     1967 1
    2001     1924     1925 1
    2002     1924     1968 1
    2003     1924     1969 1
    2004     1925     1926 1
    2005     1925     1970 1
    2006     1925     1971 1
    2007     1926     1927 1
    2008     1926     1972 1
    2009     1926     1973 1
    2010     1927     1928 1
    2011     1927     1974 1
    2012     1927     1975 1
    2013     1928     1929 1
    2014     1928     1976 1
    2015     1928     1977 1
    2016     1929     1930 1
    2017     1929     1978 1
    2018     1929     1979 1
    2019     1930     1931 1
    2020     1930     1980 1
    2021     1930     1981 1
    2022     1931     1932 1
    2023     1931     1982 1
    2024     1931     1983 1
    2025     1932     1933 1
    2026     1932     1941 1
    2027     1932     1984 1
    2028     1933     1934 1
    2029     1933     1985 1
    2030     1933     1986 1
    2031     1934     1935 1
    2032     1934     1987 1
    2033     1934     1988 1
    2034     1935     1936 1
    2035     1935     1989 1
    2036     1935     1990 1
    2037     1936     1937 1
    2038     1936     1991 1
    2039     1936     1992 1
    2040     1937     1938 1
    2041     1937     1993 1
    2042     1937     1994 1
    2043     1938     1939 1
    2044     1938     1995 1
    2045     1938     1996 1
    2046     1939     1940 1
    2047     1939     1997 1
    2048     1939     1998 1
    2049     1940     1999 1
    2050     1940     2000 1
    2051     1940     2001 1
    2052     1941     1942 1
    2053     1941     2002 1
    2054     1941     2003 1
    2055     1942     1943 1
    2056     1943     1944 1
    2057     1943     2004 1
    2058     1943     2005 1
    2059     1944     1945 1
    2060     1944     1953 1
    2061     1944     2006 1
    2062     1945     1946 1
    2063     1945     2007 1
    2064     1945     2008 1
    2065     1946     1947 1
    2066     1946     2009 1
    2067     1946     2010 1
    2068     1947     1948 1
    2069     1947     2011 1
    2070     1947     2012 1
    2071     1948     1949 1
    2072     1948     2013 1
    2073     1948     2014 1
    2074     1949     1950 1
    2075     1949     2015 1
    2076     1949     2016 1
    2077     1950     1951 1
    2078     1950     2017 1
    2079     1950     2018 1
    2080     1951     1952 1
    2081     1951     2019 1
    2082     1951     2020 1
    2083     1952     2021 1
    2084     1952     2022 1
    2085     1952     2023 1
    2086     1953     1954 1
    2087     1953     2024 1
    2088     1953     2025 1
    2089     1954     1955 1
    2090     1954     2026 1
    2091     1954     2027 1
    2092     1955     1956 1
    2093     1955     2028 1
    2094     1955     2029 1
    2095     1956     1957 1
    2096     1956     2030 1
    2097     1956     2031 1
    2098     1957     1958 1
    2099     1957     2032 1
    2100     1957     2033 1
    2101     1958     1959 1
    2102     1958     2034 1
    2103     1958     2035 1
    2104     1959     1960 1
    2105     1959     2036 1
    2106     1959     2037 1
    2107     1960     1961 1
    2108     1960     2038 1
    2109     1960     2039 1
    2110     1961     1962 1
    2111     1961     2040 1
    2112     1961     2041 1
    2113     1962     2042 1
    2114     1962     2043 1
    2115     1962     2044 1
    2116     2045     2046 1
    2117     2045     2052 1
    2118     2045     2088 1
    2119     2046     2047 1
    2120     2046     2050 1
    2121     2047     2048 1
    2122     2047     2051 1
    2123     2048     2049 1
    2124     2049     2050 1
    2125     2049     2060 1
    2126     2050     2056 1
    2127     2051     2052 1
    2128     2051     2055 1
    2129     2052     2053 1
    2130     2053     2054 1
    2131     2053     2057 1
    2132     2054     2055 1
    2133     2058     2059 1
    2134     2058     2066 1
    2135     2059     2060 1
    2136     2059     2067 1
    2137     2060     2061 1
    2138     2061     2062 1
    2139     2061     2065 1
    2140     2062     2063 1
    2141     2063     2064 1
    2142     2064     2065 1
    2143     2065     2066 1
    2144     2066     2200 1
    2145     2068     2069 1
    2146     2068     2109 1
    2147     2068     2110 1
    2148     2068     2111 1
    2149     2069     2070 1
    2150     2069     2112 1
    2151     2069     2113 1
    2152     2070     2071 1
    2153     2070     2114 1
    2154     2070     2115 1
    2155     2071     2072 1
    2156     2071     2116 1
    2157     2071     2117 1
    2158     2072     2073 1
    2159     2072     2118 1
    2160     2072     2119 1
    2161     2073     2074 1
    2162     2073     2120 1
    2163     2073     2121 1
    2164     2074     2075 1
    2165     2074     2122 1
    2166     2074     2123 1
    2167     2075     2076 1
    2168     2075     2124 1
    2169     2075     2125 1
    2170     2076     2077 1
    2171     2076     2126 1
    2172     2076     2127 1
    2173     2077     2078 1
    2174     2077     2128 1
    2175     2077     2129 1
    2176     2078     2079 1
    2177     2078     2087 1
    2178     2078     2130 1
    2179     2079     2080 1
    2180     2079     2131 1
    2181     2079     2132 1
    2182     2080     2081 1
    2183     2080     2133 1
    2184     2080     2134 1
    2185     2081     2082 1
    2186     2081     2135 1
    2187     2081     2136 1
    2188     2082     2083 1
    2189     2082     2137 1
    2190     2082     2138 1
    2191     2083     2084 1
    2192     2083     2139 1
    2193     2083     2140 1
    2194     2084     2085 1
    2195     2084     2141 1
    2196     2084     2142 1
    2197     2085     2086 1
    2198     2085     2143 1
    2199     2085     2144 1
    2200     2086     2145 1
    2201     2086     2146 1
    2202     2086     2147 1
    2203     2087     2088 1
    2204     2087     2148 1
    2205     2087     2149 1
    2206     2088     2089 1
    2207     2089     2090 1
    2208     2089     2150 1
    2209     2089     2151 1
    2210     2090     2091 1
    2211     2090     2099 1
    2212     2090     2152 1
    2213     2091     2092 1
    2214     2091     2153 1
    2215     2091     2154 1
    2216     2092     2093 1
    2217     2092     2155 1
    2218     2092     2156 1
    2219     2093     2094 1
    2220     2093     2157 1
    2221     2093     2158 1
    2222     2094     2095 1
    2223     2094     2159 1
    2224     2094     2160 1
    2225     2095     2096 1
    2226     2095     2161 1
    2227     2095     2162 1
    2228     2096     2097 1
    2229     2096     2163 1
    2230     2096     2164 1
    2231     2097     2098 1
    2232     2097     2165 1
    2233     2097     2166 1
    2234     2098     2167 1
    2235     2098     2168 1
    2236     2098     2169 1
    2237     2099     2100 1
    2238     2099     2170 1
    2239     2099     2171 1
    2240     2100     2101 1
    2241     2100     2172 1
    2242     2100     2173 1
    2243     2101     2102 1
    2244     2101     2174 1
    2245     2101     2175 1
    2246     2102     2103 1
    2247     2102     2176 1
    2248     2102     2177 1
    2249     2103     2104 1
    2250     2103     2178 1
    2251     2103     2179 1
    2252     2104     2105 1
    2253     2104     2180 1
    2254     2104     2181 1
    2255     2105     2106 1
    2256     2105     2182 1
    2257     2105     2183 1
    2258     2106     2107 1
    2259     2106     2184 1
    2260     2106     2185 1
    2261     2107     2108 1
    2262     2107     2186 1
    2263     2107     2187 1
    2264     2108     2188 1
    2265     2108     2189 1
    2266     2108     2190 1
    2267     2191     2192 1
    2268     2191     2198 1
    2269     2191     2234 1
    2270     2192     2193 1
    2271     2192     2196 1
    2272     2193     2194 1
    2273     2193     2197 1
    2274     2194     2195 1
    2275     2195     2196 1
    2276     2195     2206 1
    2277     2196     2202 1
    2278     2197     2198 1
    2279     2197     2201 1
    2280     2198     2199 1
    2281     2199     2200 1
    2282     2199     2203 1
    2283     2200     2201 1
    2284     2204     2205 1
    2285     2204     2212 1
    2286     2205     2206 1
    2287     2205     2213 1
    2288     2206     2207 1
    2289     2207     2208 1
    2290     2207     2211 1
    2291     2208     2209 1
    2292     2209     2210 1
    2293     2210     2211 1
    2294     2211     2212 1
    2295     2212     2346 1
    2296     2214     2215 1
    2297     2214     2255 1
    2298     2214     2256 1
    2299     2214     2257 1
    2300     2215     2216 1
    2301     2215     2258 1
    2302     2215     2259 1
    2303     2216     2217 1
    2304     2216     2260 1
    2305     2216     2261 1
    2306     2217     2218 1
    2307     2217     2262 1
    2308     2217     2263 1
    2309     2218     2219 1
    2310     2218     2264 1
    2311     2218     2265 1
    2312     2219     2220 1
    2313     2219     2266 1
    2314     2219     2267 1
    2315     2220     2221 1
    2316     2220     2268 1
    2317     2220     2269 1
    2318     2221     2222 1
    2319     2221     2270 1
    2320     2221     2271 1
    2321     2222     2223 1
    2322     2222     2272 1
    2323     2222     2273 1
    2324     2223     2224 1
    2325     2223     2274 1
    2326     2223     2275 1
    2327     2224     2225 1
    2328     2224     2233 1
    2329     2224     2276 1
    2330     2225     2226 1
    2331     2225     2277 1
    2332     2225     2278 1
    2333     2226     2227 1
    2334     2226     2279 1
    2335     2226     2280 1
    2336     2227     2228 1
    2337     2227     2281 1
    2338     2227     2282 1
    2339     2228     2229 1
    2340     2228     2283 1
    2341     2228     2284 1
    2342     2229     2230 1
    2343     2229     2285 1
    2344     2229     2286 1
    2345     2230     2231 1
    2346     2230     2287 1
    2347     2230     2288 1
    2348     2231     2232 1
    2349     2231     2289 1
    2350     2231     2290 1
    2351     2232     2291 1
    2352     2232     2292 1
    2353     2232     2293 1
    2354     2233     2234 1
    2355     2233     2294 1
    2356     2233     2295 1
    2357     2234     2235 1
    2358     2235     2236 1
    2359     2235     2296 1
    2360     2235     2297 1
    2361     2236     2237 1
    2362     2236     2245 1
    2363     2236     2298 1
    2364     2237     2238 1
    2365     2237     2299 1
    2366     2237     2300 1
    2367     2238     2239 1
    2368     2238     2301 1
    2369     2238     2302 1
    2370     2239     2240 1
    2371     2239     2303 1
    2372     2239     2304 1
    2373     2240     2241 1
    2374     2240     2305 1
    2375     2240     2306 1
    2376     2241     2242 1
    2377     2241     2307 1
    2378     2241     2308 1
    2379     2242     2243 1
    2380     2242     2309 1
    2381     2242     2310 1
    2382     2243     2244 1
    2383     2243     2311 1
    2384     2243     2312 1
    2385     2244     2313 1
    2386     2244     2314 1
    2387     2244     2315 1
    2388     2245     2246 1
    2389     2245     2316 1
    2390     2245     2317 1
    2391     2246     2247 1
    2392     2246     2318 1
    2393     2246     2319 1
    2394     2247     2248 1
    2395     2247     2320 1
    2396     2247     2321 1
    2397     2248     2249 1
    2398     2248     2322 1
    2399     2248     2323 1
    2400     2249     2250 1
    2401     2249     2324 1
    2402     2249     2325 1
    2403     2250     2251 1
    2404     2250     2326 1
    2405     2250     2327 1
    2406     2251     2252 1
    2407     2251     2328 1
    2408     2251     2329 1
    2409     2252     2253 1
    2410     2252     2330 1
    2411     2252     2331 1
    2412     2253     2254 1
    2413     2253     2332 1
    2414     2253     2333 1
    2415     2254     2334 1
    2416     2254     2335 1
    2417     2254     2336 1
    2418     2337     2338 1
    2419     2337     2344 1
    2420     2337     2380 1
    2421     2338     2339 1
    2422     2338     2342 1
    2423     2339     2340 1
    2424     2339     2343 1
    2425     2340     2341 1
    2426     2341     2342 1
    2427     2341     2352 1
    2428     2342     2348 1
    2429     2343     2344 1
    2430     2343     2347 1
    2431     2344     2345 1
    2432     2345     2346 1
    2433     2345     2349 1
    2434     2346     2347 1
    2435     2350     2351 1
    2436     2350     2358 1
    2437     2351     2352 1
    2438     2351     2359 1
    2439     2352     2353 1
    2440     2353     2354 1
    2441     2353     2357 1
    2442     2354     2355 1
    2443     2355     2356 1
    2444     2356     2357 1
    2445     2357     2358 1
    2446     2358     2492 1
    2447     2360     2361 1
    2448     2360     2401 1
    2449     2360     2402 1
    2450     2360     2403 1
    2451     2361     2362 1
    2452     2361     2404 1
    2453     2361     2405 1
    2454     2362     2363 1
    2455     2362     2406 1
    2456     2362     2407 1
    2457     2363     2364 1
    2458     2363     2408 1
    2459     2363     2409 1
    2460     2364     2365 1
    2461     2364     2410 1
    2462     2364     2411 1
    2463     2365     2366 1
    2464     2365     2412 1
    2465     2365     2413 1
    2466     2366     2367 1
    2467     2366     2414 1
    2468     2366     2415 1
    2469     2367     2368 1
    2470     2367     2416 1
    2471     2367     2417 1
    2472     2368     2369 1
    2473     2368     2418 1
    2474     2368     2419 1
    2475     2369     2370 1
    2476     2369     2420 1
    2477     2369     2421 1
    2478     2370     2371 1
    2479     2370     2379 1
    2480     2370     2422 1
    2481     2371     2372 1
    2482     2371     2423 1
    2483     2371     2424 1
    2484     2372     2373 1
    2485     2372     2425 1
    2486     2372     2426 1
    2487     2373     2374 1
    2488     2373     2427 1
    2489     2373     2428 1
    2490     2374     2375 1
    2491     2374     2429 1
    2492     2374     2430 1
    2493     2375     2376 1
    2494     2375     2431 1
    2495     2375     2432 1
    2496     2376     2377 1
    2497     2376     2433 1
    2498     2376     2434 1
    2499     2377     2378 1
    2500     2377     2435 1
    2501     2377     2436 1
    2502     2378     2437 1
    2503     2378     2438 1
    2504     2378     2439 1
    2505     2379     2380 1
    2506     2379     2440 1
    2507     2379     2441 1
    2508     2380     2381 1
    2509     2381     2382 1
    2510     2381     2442 1
    2511     2381     2443 1
    2512     2382     2383 1
    2513     2382     2391 1
    2514     2382     2444 1
    2515     2383     2384 1
    2516     2383     2445 1
    2517     2383     2446 1
    2518     2384     2385 1
    2519     2384     2447 1
    2520     2384     2448 1
    2521     2385     2386 1
    2522     2385     2449 1
    2523     2385     2450 1
    2524     2386     2387 1
    2525     2386     2451 1
    2526     2386     2452 1
    2527     2387     2388 1
    2528     2387     2453 1
    2529     2387     2454 1
    2530     2388     2389 1
    2531     2388     2455 1
    2532     2388     2456 1
    2533     2389     2390 1
    2534     2389     2457 1
    2535     2389     2458 1
    2536     2390     2459 1
    2537     2390     2460 1
    2538     2390     2461 1
    2539     2391     2392 1
    2540     2391     2462 1
    2541     2391     2463 1
    2542     2392     2393 1
    2543     2392     2464 1
    2544     2392     2465 1
    2545     2393     2394 1
    2546     2393     2466 1
    2547     2393     2467 1
    2548     2394     2395 1
    2549     2394     2468 1
    2550     2394     2469 1
    2551     2395     2396 1
    2552     2395     2470 1
    2553     2395     2471 1
    2554     2396     2397 1
    2555     2396     2472 1
    2556     2396     2473 1
    2557     2397     2398 1
    2558     2397     2474 1
    2559     2397     2475 1
    2560     2398     2399 1
    2561     2398     2476 1
    2562     2398     2477 1
    2563     2399     2400 1
    2564     2399     2478 1
    2565     2399     2479 1
    2566     2400     2480 1
    2567     2400     2481 1
    2568     2400     2482 1
    2569     2483     2484 1
    2570     2483     2490 1
    2571     2483     2526 1
    2572     2484     2485 1
    2573     2484     2488 1
    2574     2485     2486 1
    2575     2485     2489 1
    2576     2486     2487 1
    2577     2487     2488 1
    2578     2487     2498 1
    2579     2488     2494 1
    2580     2489     2490 1
    2581     2489     2493 1
    2582     2490     2491 1
    2583     2491     2492 1
    2584     2491     2495 1
    2585     2492     2493 1
    2586     2496     2497 1
    2587     2496     2504 1
    2588     2497     2498 1
    2589     2497     2505 1
    2590     2498     2499 1
    2591     2499     2500 1
    2592     2499     2503 1
    2593     2500     2501 1
    2594     2501     2502 1
    2595     2502     2503 1
    2596     2503     2504 1
    2597     2504     2638 1
    2598     2506     2507 1
    2599     2506     2547 1
    2600     2506     2548 1
    2601     2506     2549 1
    2602     2507     2508 1
    2603     2507     2550 1
    2604     2507     2551 1
    2605     2508     2509 1
    2606     2508     2552 1
    2607     2508     2553 1
    2608     2509     2510 1
    2609     2509     2554 1
    2610     2509     2555 1
    2611     2510     2511 1
    2612     2510     2556 1
    2613     2510     2557 1
    2614     2511     2512 1
    2615     2511     2558 1
    2616     2511     2559 1
    2617     2512     2513 1
    2618     2512     2560 1
    2619     2512     2561 1
    2620     2513     2514 1
    2621     2513     2562 1
    2622     2513     2563 1
    2623     2514     2515 1
    2624     2514     2564 1
    2625     2514     2565 1
    2626     2515     2516 1
    2627     2515     2566 1
    2628     2515     2567 1
    2629     2516     2517 1
    2630     2516     2525 1
    2631     2516     2568 1
    2632     2517     2518 1
    2633     2517     2569 1
    2634     2517     2570 1
    2635     2518     2519 1
    2636     2518     2571 1
    2637     2518     2572 1
    2638     2519     2520 1
    2639     2519     2573 1
    2640     2519     2574 1
    2641     2520     2521 1
    2642     2520     2575 1
    2643     2520     2576 1
    2644     2521     2522 1
    2645     2521     2577 1
    2646     2521     2578 1
    2647     2522     2523 1
    2648     2522     2579 1
    2649     2522     2580 1
    2650     2523     2524 1
    2651     2523     2581 1
    2652     2523     2582 1
    2653     2524     2583 1
    2654     2524     2584 1
    2655     2524     2585 1
    2656     2525     2526 1
    2657     2525     2586 1
    2658     2525     2587 1
    2659     2526     2527 1
    2660     2527     2528 1
    2661     2527     2588 1
    2662     2527     2589 1
    2663     2528     2529 1
    2664     2528     2537 1
    2665     2528     2590 1
    2666     2529     2530 1
    2667     2529     2591 1
    2668     2529     2592 1
    2669     2530     2531 1
    2670     2530     2593 1
    2671     2530     2594 1
    2672     2531     2532 1
    2673     2531     2595 1
    2674     2531     2596 1
    2675     2532     2533 1
    2676     2532     2597 1
    2677     2532     2598 1
    2678     2533     2534 1
    2679     2533     2599 1
    2680     2533     2600 1
    2681     2534     2535 1
    2682     2534     2601 1
    2683     2534     2602 1
    2684     2535     2536 1
    2685     2535     2603 1
    2686     2535     2604 1
    2687     2536     2605 1
    2688     2536     2606 1
    2689     2536     2607 1
    2690     2537     2538 1
    2691     2537     2608 1
    2692     2537     2609 1
    2693     2538     2539 1
    2694     2538     2610 1
    2695     2538     2611 1
    2696     2539     2540 1
    2697     2539     2612 1
    2698     2539     2613 1
    2699     2540     2541 1
    2700     2540     2614 1
    2701     2540     2615 1
    2702     2541     2542 1
    2703     2541     2616 1
    2704     2541     2617 1
    2705     2542     2543 1
    2706     2542     2618 1
    2707     2542     2619 1
    2708     2543     2544 1
    2709     2543     2620 1
    2710     2543     2621 1
    2711     2544     2545 1
    2712     2544     2622 1
    2713     2544     2623 1
    2714     2545     2546 1
    2715     2545     2624 1
    2716     2545     2625 1
    2717     2546     2626 1
    2718     2546     2627 1
    2719     2546     2628 1
    2720     2629     2630 1
    2721     2629     2636 1
    2722     2629     2672 1
    2723     2630     2631 1
    2724     2630     2634 1
    2725     2631     2632 1
    2726     2631     2635 1
    2727     2632     2633 1
    2728     2633     2634 1
    2729     2633     2644 1
    2730     2634     2640 1
    2731     2635     2636 1
    2732     2635     2639 1
    2733     2636     2637 1
    2734     2637     2638 1
    2735     2637     2641 1
    2736     2638     2639 1
    2737     2642     2643 1
    2738     2642     2650 1
    2739     2643     2644 1
    2740     2643     2651 1
    2741     2644     2645 1
    2742     2645     2646 1
    2743     2645     2649 1
    2744     2646     2647 1
    2745     2647     2648 1
    2746     2648     2649 1
    2747     2649     2650 1
    2748     2650     2784 1
    2749     2652     2653 1
    2750     2652     2693 1
    2751     2652     2694 1
    2752     2652     2695 1
    2753     2653     2654 1
    2754     2653     2696 1
    2755     2653     2697 1
    2756     2654     2655 1
    2757     2654     2698 1
    2758     2654     2699 1
    2759     2655     2656 1
    2760     2655     2700 1
    2761     2655     2701 1
    2762     2656     2657 1
    2763     2656     2702 1
    2764     2656     2703 1
    2765     2657     2658 1
    2766     2657     2704 1
    2767     2657     2705 1
    2768     2658     2659 1
    2769     2658     2706 1
    2770     2658     2707 1
    2771     2659     2660 1
    2772     2659     2708 1
    2773     2659     2709 1
    2774     2660     2661 1
    2775     2660     2710 1
    2776     2660     2711 1
    2777     2661     2662 1
    2778     2661     2712 1
    2779     2661     2713 1
    2780     2662     2663 1
    2781     2662     2671 1
    2782     2662     2714 1
    2783     2663     2664 1
    2784     2663     2715 1
    2785     2663     2716 1
    2786     2664     2665 1
    2787     2664     2717 1
    2788     2664     2718 1
    2789     2665     2666 1
    2790     2665     2719 1
    2791     2665     2720 1
    2792     2666     2667 1
    2793     2666     2721 1
    2794     2666     2722 1
    2795     2667     2668 1
    2796     2667     2723 1
    2797     2667     2724 1
    2798     2668     2669 1
    2799     2668     2725 1
    2800     2668     2726 1
    2801     2669     2670 1
    2802     2669     2727 1
    2803     2669     2728 1
    2804     2670     2729 1
    2805     2670     2730 1
    2806     2670     2731 1
    2807     2671     2672 1
    2808     2671     2732 1
    2809     2671     2733 1
    2810     2672     2673 1
    2811     2673     2674 1
    2812     2673     2734 1
    2813     2673     2735 1
    2814     2674     2675 1
    2815     2674     2683 1
    2816     2674     2736 1
    2817     2675     2676 1
    2818     2675     2737 1
    2819     2675     2738 1
    2820     2676     2677 1
    2821     2676     2739 1
    2822     2676     2740 1
    2823     2677     2678 1
    2824     2677     2741 1
    2825     2677     2742 1
    2826     2678     2679 1
    2827     2678     2743 1
    2828     2678     2744 1
    2829     2679     2680 1
    2830     2679     2745 1
    2831     2679     2746 1
    2832     2680     2681 1
    2833     2680     2747 1
    2834     2680     2748 1
    2835     2681     2682 1
    2836     2681     2749 1
    2837     2681     2750 1
    2838     2682     2751 1
    2839     2682     2752 1
    2840     2682     2753 1
    2841     2683     2684 1
    2842     2683     2754 1
    2843     2683     2755 1
    2844     2684     2685 1
    2845     2684     2756 1
    2846     2684     2757 1
    2847     2685     2686 1
    2848     2685     2758 1
    2849     2685     2759 1
    2850     2686     2687 1
    2851     2686     2760 1
    2852     2686     2761 1
    2853     2687     2688 1
    2854     2687     2762 1
    2855     2687     2763 1
    2856     2688     2689 1
    2857     2688     2764 1
    2858     2688     2765 1
    2859     2689     2690 1
    2860     2689     2766 1
    2861     2689     2767 1
    2862     2690     2691 1
    2863     2690     2768 1
    2864     2690     2769 1
    2865     2691     2692 1
    2866     2691     2770 1
    2867     2691     2771 1
    2868     2692     2772 1
    2869     2692     2773 1
    2870     2692     2774 1
    2871     2775     2776 1
    2872     2775     2782 1
    2873     2775     2818 1
    2874     2776     2777 1
    2875     2776     2780 1
    2876     2777     2778 1
    2877     2777     2781 1
    2878     2778     2779 1
    2879     2779     2780 1
    2880     2779     2790 1
    2881     2780     2786 1
    2882     2781     2782 1
    2883     2781     2785 1
    2884     2782     2783 1
    2885     2783     2784 1
    2886     2783     2787 1
    2887     2784     2785 1
    2888     2788     2789 1
    2889     2788     2796 1
    2890     2789     2790 1
    2891     2789     2797 1
    2892     2790     2791 1
    2893     2791     2792 1
    2894     2791     2795 1
    2895     2792     2793 1
    2896     2793     2794 1
    2897     2794     2795 1
    2898     2795     2796 1
    2899     2796     2930 1
    2900     2798     2799 1
    2901     2798     2839 1
    2902     2798     2840 1
    2903     2798     2841 1
    2904     2799     2800 1
    2905     2799     2842 1
    2906     2799     2843 1
    2907     2800     2801 1
    2908     2800     2844 1
    2909     2800     2845 1
    2910     2801     2802 1
    2911     2801     2846 1
    2912     2801     2847 1
    2913     2802     2803 1
    2914     2802     2848 1
    2915     2802     2849 1
    2916     2803     2804 1
    2917     2803     2850 1
    2918     2803     2851 1
    2919     2804     2805 1
    2920     2804     2852 1
    2921     2804     2853 1
    2922     2805     2806 1
    2923     2805     2854 1
    2924     2805     2855 1
    2925     2806     2807 1
    2926     2806     2856 1
    2927     2806     2857 1
    2928     2807     2808 1
    2929     2807     2858 1
    2930     2807     2859 1
    2931     2808     2809 1
    2932     2808     2817 1
    2933     2808     2860 1
    2934     2809     2810 1
    2935     2809     2861 1
    2936     2809     2862 1
    2937     2810     2811 1
    2938     2810     2863 1
    2939     2810     2864 1
    2940     2811     2812 1
    2941     2811     2865 1
    2942     2811     2866 1
    2943     2812     2813 1
    2944     2812     2867 1
    2945     2812     2868 1
    2946     2813     2814 1
    2947     2813     2869 1
    2948     2813     2870 1
    2949     2814     2815 1
    2950     2814     2871 1
    2951     2814     2872 1
    2952     2815     2816 1
    2953     2815     2873 1
    2954     2815     2874 1
    2955     2816     2875 1
    2956     2816     2876 1
    2957     2816     2877 1
    2958     2817     2818 1
    2959     2817     2878 1
    2960     2817     2879 1
    2961     2818     2819 1
    2962     2819     2820 1
    2963     2819     2880 1
    2964     2819     2881 1
    2965     2820     2821 1
    2966     2820     2829 1
    2967     2820     2882 1
    2968     2821     2822 1
    2969     2821     2883 1
    2970     2821     2884 1
    2971     2822     2823 1
    2972     2822     2885 1
    2973     2822     2886 1
    2974     2823     2824 1
    2975     2823     2887 1
    2976     2823     2888 1
    2977     2824     2825 1
    2978     2824     2889 1
    2979     2824     2890 1
    2980     2825     2826 1
    2981     2825     2891 1
    2982     2825     2892 1
    2983     2826     2827 1
    2984     2826     2893 1
    2985     2826     2894 1
    2986     2827     2828 1
    2987     2827     2895 1
    2988     2827     2896 1
    2989     2828     2897 1
    2990     2828     2898 1
    2991     2828     2899 1
    2992     2829     2830 1
    2993     2829     2900 1
    2994     2829     2901 1
    2995     2830     2831 1
    2996     2830     2902 1
    2997     2830     2903 1
    2998     2831     2832 1
    2999     2831     2904 1
    3000     2831     2905 1
    3001     2832     2833 1
    3002     2832     2906 1
    3003     2832     2907 1
    3004     2833     2834 1
    3005     2833     2908 1
    3006     2833     2909 1
    3007     2834     2835 1
    3008     2834     2910 1
    3009     2834     2911 1
    3010     2835     2836 1
    3011     2835     2912 1
    3012     2835     2913 1
    3013     2836     2837 1
    3014     2836     2914 1
    3015     2836     2915 1
    3016     2837     2838 1
    3017     2837     2916 1
    3018     2837     2917 1
    3019     2838     2918 1
    3020     2838     2919 1
    3021     2838     2920 1
    3022     2921     2922 1
    3023     2921     2928 1
    3024     2921     2964 1
    3025     2922     2923 1
    3026     2922     2926 1
    3027     2923     2924 1
    3028     2923     2927 1
    3029     2924     2925 1
    3030     2925     2926 1
    3031     2925     2936 1
    3032     2926     2932 1
    3033     2927     2928 1
    3034     2927     2931 1
    3035     2928     2929 1
    3036     2929     2930 1
    3037     2929     2933 1
    3038     2930     2931 1
    3039     2934     2935 1
    3040     2934     2942 1
    3041     2935     2936 1
    3042     2935     2943 1
    3043     2936     2937 1
    3044     2937     2938 1
    3045     2937     2941 1
    3046     2938     2939 1
    3047     2939     2940 1
    3048     2940     2941 1
    3049     2941     2942 1
    3050     2942     3076 1
    3051     2944     2945 1
    3052     2944     2985 1
    3053     2944     2986 1
    3054     2944     2987 1
    3055     2945     2946 1
    3056     2945     2988 1
    3057     2945     2989 1
    3058     2946     2947 1
    3059     2946     2990 1
    3060     2946     2991 1
    3061     2947     2948 1
    3062     2947     2992 1
    3063     2947     2993 1
    3064     2948     2949 1
    3065     2948     2994 1
    3066     2948     2995 1
    3067     2949     2950 1
    3068     2949     2996 1
    3069     2949     2997 1
    3070     2950     2951 1
    3071     2950     2998 1
    3072     2950     2999 1
    3073     2951     2952 1
    3074     2951     3000 1
    3075     2951     3001 1
    3076     2952     2953 1
    3077     2952     3002 1
    3078     2952     3003 1
    3079     2953     2954 1
    3080     2953     3004 1
    3081     2953     3005 1
    3082     2954     2955 1
    3083     2954     2963 1
    3084     2954     3006 1
    3085     2955     2956 1
    3086     2955     3007 1
    3087     2955     3008 1
    3088     2956     2957 1
    3089     2956     3009 1
    3090     2956     3010 1
    3091     2957     2958 1
    3092     2957     3011 1
    3093     2957     3012 1
    3094     2958     2959 1
    3095     2958     3013 1
    3096     2958     3014 1
    3097     2959     2960 1
    3098     2959     3015 1
    3099     2959     3016 1
    3100     2960     2961 1
    3101     2960     3017 1
    3102     2960     3018 1
    3103     2961     2962 1
    3104     2961     3019 1
    3105     2961     3020 1
    3106     2962     3021 1
    3107     2962     3022 1
    3108     2962     3023 1
    3109     2963     2964 1
    3110     2963     3024 1
    3111     2963     3025 1
    3112     2964     2965 1
    3113     2965     2966 1
    3114     2965     3026 1
    3115     2965     3027 1
    3116     2966     2967 1
    3117     2966     2975 1
    3118     2966     3028 1
    3119     2967     2968 1
    3120     2967     3029 1
    3121     2967     3030 1
    3122     2968     2969 1
    3123     2968     3031 1
    3124     2968     3032 1
    3125     2969     2970 1
    3126     2969     3033 1
    3127     2969     3034 1
    3128     2970     2971 1
    3129     2970     3035 1
    3130     2970     3036 1
    3131     2971     2972 1
    3132     2971     3037 1
    3133     2971     3038 1
    3134     2972     2973 1
    3135     2972     3039 1
    3136     2972     3040 1
    3137     2973     2974 1
    3138     2973     3041 1
    3139     2973     3042 1
    3140     2974     3043 1
    3141     2974     3044 1
    3142     2974     3045 1
    3143     2975     2976 1
    3144     2975     3046 1
    3145     2975     3047 1
    3146     2976     2977 1
    3147     2976     3048 1
    3148     2976     3049 1
    3149     2977     2978 1
    3150     2977     3050 1
    3151     2977     3051 1
    3152     2978     2979 1
    3153     2978     3052 1
    3154     2978     3053 1
    3155     2979     2980 1
    3156     2979     3054 1
    3157     2979     3055 1
    3158     2980     2981 1
    3159     2980     3056 1
    3160     2980     3057 1
    3161     2981     2982 1
    3162     2981     3058 1
    3163     2981     3059 1
    3164     2982     2983 1
    3165     2982     3060 1
    3166     2982     3061 1
    3167     2983     2984 1
    3168     2983     3062 1
    3169     2983     3063 1
    3170     2984     3064 1
    3171     2984     3065 1
    3172     2984     3066 1
    3173     3067     3068 1
    3174     3067     3074 1
    3175     3067     3110 1
    3176     3068     3069 1
    3177     3068     3072 1
    3178     3069     3070 1
    3179     3069     3073 1
    3180     3070     3071 1
    3181     3071     3072 1
    3182     3071     3082 1
    3183     3072     3078 1
    3184     3073     3074 1
    3185     3073     3077 1
    3186     3074     3075 1
    3187     3075     3076 1
    3188     3075     3079 1
    3189     3076     3077 1
    3190     3080     3081 1
    3191     3080     3088 1
    3192     3081     3082 1
    3193     3081     3089 1
    3194     3082     3083 1
    3195     3083     3084 1
    3196     3083     3087 1
    3197     3084     3085 1
    3198     3085     3086 1
    3199     3086     3087 1
    3200     3087     3088 1
    3201     3088     3222 1
    3202     3090     3091 1
    3203     3090     3131 1
    3204     3090     3132 1
    3205     3090     3133 1
    3206     3091     3092 1
    3207     3091     3134 1
    3208     3091     3135 1
    3209     3092     3093 1
    3210     3092     3136 1
    3211     3092     3137 1
    3212     3093     3094 1
    3213     3093     3138 1
    3214     3093     3139 1
    3215     3094     3095 1
    3216     3094     3140 1
    3217     3094     3141 1
    3218     3095     3096 1
    3219     3095     3142 1
    3220     3095     3143 1
    3221     3096     3097 1
    3222     3096     3144 1
    3223     3096     3145 1
    3224     3097     3098 1
    3225     3097     3146 1
    3226     3097     3147 1
    3227     3098     3099 1
    3228     3098     3148 1
    3229     3098     3149 1
    3230     3099     3100 1
    3231     3099     3150 1
    3232     3099     3151 1
    3233     3100     3101 1
    3234     3100     3109 1
    3235     3100     3152 1
    3236     3101     3102 1
    3237     3101     3153 1
    3238     3101     3154 1
    3239     3102     3103 1
    3240     3102     3155 1
    3241     3102     3156 1
    3242     3103     3104 1
    3243     3103     3157 1
    3244     3103     3158 1
    3245     3104     3105 1
    3246     3104     3159 1
    3247     3104     3160 1
    3248     3105     3106 1
    3249     3105     3161 1
    3250     3105     3162 1
    3251     3106     3107 1
    3252     3106     3163 1
    3253     3106     3164 1
    3254     3107     3108 1
    3255     3107     3165 1
    3256     3107     3166 1
    3257     3108     3167 1
    3258     3108     3168 1
    3259     3108     3169 1
    3260     3109     3110 1
    3261     3109     3170 1
    3262     3109     3171 1
    3263     3110     3111 1
    3264     3111     3112 1
    3265     3111     3172 1
    3266     3111     3173 1
    3267     3112     3113 1
    3268     3112     3121 1
    3269     3112     3174 1
    3270     3113     3114 1
    3271     3113     3175 1
    3272     3113     3176 1
    3273     3114     3115 1
    3274     3114     3177 1
    3275     3114     3178 1
    3276     3115     3116 1
    3277     3115     3179 1
    3278     3115     3180 1
    3279     3116     3117 1
    3280     3116     3181 1
    3281     3116     3182 1
    3282     3117     3118 1
    3283     3117     3183 1
    3284     3117     3184 1
    3285     3118     3119 1
    3286     3118     3185 1
    3287     3118     3186 1
    3288     3119     3120 1
    3289     3119     3187 1
    3290     3119     3188 1
    3291     3120     3189 1
    3292     3120     3190 1
    3293     3120     3191 1
    3294     3121     3122 1
    3295     3121     3192 1
    3296     3121     3193 1
    3297     3122     3123 1
    3298     3122     3194 1
    3299     3122     3195 1
    3300     3123     3124 1
    3301     3123     3196 1
    3302     3123     3197 1
    3303     3124     3125 1
    3304     3124     3198 1
    3305     3124     3199 1
    3306     3125     3126 1
    3307     3125     3200 1
    3308     3125     3201 1
    3309     3126     3127 1
    3310     3126     3202 1
    3311     3126     3203 1
    3312     3127     3128 1
    3313     3127     3204 1
    3314     3127     3205 1
    3315     3128     3129 1
    3316     3128     3206 1
    3317     3128     3207 1
    3318     3129     3130 1
    3319     3129     3208 1
    3320     3129     3209 1
    3321     3130     3210 1
    3322     3130     3211 1
    3323     3130     3212 1
    3324     3213     3214 1
    3325     3213     3220 1
    3326     3213     3256 1
    3327     3214     3215 1
    3328     3214     3218 1
    3329     3215     3216 1
    3330     3215     3219 1
    3331     3216     3217 1
    3332     3217     3218 1
    3333     3217     3228 1
    3334     3218     3224 1
    3335     3219     3220 1
    3336     3219     3223 1
    3337     3220     3221 1
    3338     3221     3222 1
    3339     3221     3225 1
    3340     3222     3223 1
    3341     3226     3227 1
    3342     3226     3234 1
    3343     3227     3228 1
    3344     3227     3235 1
    3345     3228     3229 1
    3346     3229     3230 1
    3347     3229     3233 1
    3348     3230     3231 1
    3349     3231     3232 1
    3350     3232     3233 1
    3351     3233     3234 1
    3352     3234     3368 1
    3353     3236     3237 1
    3354     3236     3277 1
    3355     3236     3278 1
    3356     3236     3279 1
    3357     3237     3238 1
    3358     3237     3280 1
    3359     3237     3281 1
    3360     3238     3239 1
    3361     3238     3282 1
    3362     3238     3283 1
    3363     3239     3240 1
    3364     3239     3284 1
    3365     3239     3285 1
    3366     3240     3241 1
    3367     3240     3286 1
    3368     3240     3287 1
    3369     3241     3242 1
    3370     3241     3288 1
    3371     3241     3289 1
    3372     3242     3243 1
    3373     3242     3290 1
    3374     3242     3291 1
    3375     3243     3244 1
    3376     3243     3292 1
    3377     3243     3293 1
    3378     3244     3245 1
    3379     3244     3294 1
    3380     3244     3295 1
    3381     3245     3246 1
    3382     3245     3296 1
    3383     3245     3297 1
    3384     3246     3247 1
    3385     3246     3255 1
    3386     3246     3298 1
    3387     3247     3248 1
    3388     3247     3299 1
    3389     3247     3300 1
    3390     3248     3249 1
    3391     3248     3301 1
    3392     3248     3302 1
    3393     3249     3250 1
    3394     3249     3303 1
    3395     3249     3304 1
    3396     3250     3251 1
    3397     3250     3305 1
    3398     3250     3306 1
    3399     3251     3252 1
    3400     3251     3307 1
    3401     3251     3308 1
    3402     3252     3253 1
    3403     3252     3309 1
    3404     3252     3310 1
    3405     3253     3254 1
    3406     3253     3311 1
    3407     3253     3312 1
    3408     3254     3313 1
    3409     3254     3314 1
    3410     3254     3315 1
    3411     3255     3256 1
    3412     3255     3316 1
    3413     3255     3317 1
    3414     3256     3257 1
    3415     3257     3258 1
    3416     3257     3318 1
    3417     3257     3319 1
    3418     3258     3259 1
    3419     3258     3267 1
    3420     3258     3320 1
    3421     3259     3260 1
    3422     3259     3321 1
    3423     3259     3322 1
    3424     3260     3261 1
    3425     3260     3323 1
    3426     3260     3324 1
    3427     3261     3262 1
    3428     3261     3325 1
    3429     3261     3326 1
    3430     3262     3263 1
    3431     3262     3327 1
    3432     3262     3328 1
    3433     3263     3264 1
    3434     3263     3329 1
    3435     3263     3330 1
    3436     3264     3265 1
    3437     3264     3331 1
    3438     3264     3332 1
    3439     3265     3266 1
    3440     3265     3333 1
    3441     3265     3334 1
    3442     3266     3335 1
    3443     3266     3336 1
    3444     3266     3337 1
    3445     3267     3268 1
    3446     3267     3338 1
    3447     3267     3339 1
    3448     3268     3269 1
    3449     3268     3340 1
    3450     3268     3341 1
    3451     3269     3270 1
    3452     3269     3342 1
    3453     3269     3343 1
    3454     3270     3271 1
    3455     3270     3344 1
    3456     3270     3345 1
    3457     3271     3272 1
    3458     3271     3346 1
    3459     3271     3347 1
    3460     3272     3273 1
    3461     3272     3348 1
    3462     3272     3349 1
    3463     3273     3274 1
    3464     3273     3350 1
    3465     3273     3351 1
    3466     3274     3275 1
    3467     3274     3352 1
    3468     3274     3353 1
    3469     3275     3276 1
    3470     3275     3354 1
    3471     3275     3355 1
    3472     3276     3356 1
    3473     3276     3357 1
    3474     3276     3358 1
    3475     3359     3360 1
    3476     3359     3366 1
    3477     3359     3402 1
    3478     3360     3361 1
    3479     3360     3364 1
    3480     3361     3362 1
    3481     3361     3365 1
    3482     3362     3363 1
    3483     3363     3364 1
    3484     3363     3374 1
    3485     3364     3370 1
    3486     3365     3366 1
    3487     3365     3369 1
    3488     3366     3367 1
    3489     3367     3368 1
    3490     3367     3371 1
    3491     3368     3369 1
    3492     3372     3373 1
    3493     3372     3380 1
    3494     3373     3374 1
    3495     3373     3381 1
    3496     3374     3375 1
    3497     3375     3376 1
    3498     3375     3379 1
    3499     3376     3377 1
    3500     3377     3378 1
    3501     3378     3379 1
    3502     3379     3380 1
    3503     3380     3514 1
    3504     3382     3383 1
    3505     3382     3423 1
    3506     3382     3424 1
    3507     3382     3425 1
    3508     3383     3384 1
    3509     3383     3426 1
    3510     3383     3427 1
    3511     3384     3385 1
    3512     3384     3428 1
    3513     3384     3429 1
    3514     3385     3386 1
    3515     3385     3430 1
    3516     3385     3431 1
    3517     3386     3387 1
    3518     3386     3432 1
    3519     3386     3433 1
    3520     3387     3388 1
    3521     3387     3434 1
    3522     3387     3435 1
    3523     3388     3389 1
    3524     3388     3436 1
    3525     3388     3437 1
    3526     3389     3390 1
    3527     3389     3438 1
    3528     3389     3439 1
    3529     3390     3391 1
    3530     3390     3440 1
    3531     3390     3441 1
    3532     3391     3392 1
    3533     3391     3442 1
    3534     3391     3443 1
    3535     3392     3393 1
    3536     3392     3401 1
    3537     3392     3444 1
    3538     3393     3394 1
    3539     3393     3445 1
    3540     3393     3446 1
    3541     3394     3395 1
    3542     3394     3447 1
    3543     3394     3448 1
    3544     3395     3396 1
    3545     3395     3449 1
    3546     3395     3450 1
    3547     3396     3397 1
    3548     3396     3451 1
    3549     3396     3452 1
    3550     3397     3398 1
    3551     3397     3453 1
    3552     3397     3454 1
    3553     3398     3399 1
    3554     3398     3455 1
    3555     3398     3456 1
    3556     3399     3400 1
    3557     3399     3457 1
    3558     3399     3458 1
    3559     3400     3459 1
    3560     3400     3460 1
    3561     3400     3461 1
    3562     3401     3402 1
    3563     3401     3462 1
    3564     3401     3463 1
    3565     3402     3403 1
    3566     3403     3404 1
    3567     3403     3464 1
    3568     3403     3465 1
    3569     3404     3405 1
    3570     3404     3413 1
    3571     3404     3466 1
    3572     3405     3406 1
    3573     3405     3467 1
    3574     3405     3468 1
    3575     3406     3407 1
    3576     3406     3469 1
    3577     3406     3470 1
    3578     3407     3408 1
    3579     3407     3471 1
    3580     3407     3472 1
    3581     3408     3409 1
    3582     3408     3473 1
    3583     3408     3474 1
    3584     3409     3410 1
    3585     3409     3475 1
    3586     3409     3476 1
    3587     3410     3411 1
    3588     3410     3477 1
    3589     3410     3478 1
    3590     3411     3412 1
    3591     3411     3479 1
    3592     3411     3480 1
    3593     3412     3481 1
    3594     3412     3482 1
    3595     3412     3483 1
    3596     3413     3414 1
    3597     3413     3484 1
    3598     3413     3485 1
    3599     3414     3415 1
    3600     3414     3486 1
    3601     3414     3487 1
    3602     3415     3416 1
    3603     3415     3488 1
    3604     3415     3489 1
    3605     3416     3417 1
    3606     3416     3490 1
    3607     3416     3491 1
    3608     3417     3418 1
    3609     3417     3492 1
    3610     3417     3493 1
    3611     3418     3419 1
    3612     3418     3494 1
    3613     3418     3495 1
    3614     3419     3420 1
    3615     3419     3496 1
    3616     3419     3497 1
    3617     3420     3421 1
    3618     3420     3498 1
    3619     3420     3499 1
    3620     3421     3422 1
    3621     3421     3500 1
    3622     3421     3501 1
    3623     3422     3502 1
    3624     3422     3503 1
    3625     3422     3504 1
    3626     3505     3506 1
    3627     3505     3512 1
    3628     3505     3548 1
    3629     3506     3507 1
    3630     3506     3510 1
    3631     3507     3508 1
    3632     3507     3511 1
    3633     3508     3509 1
    3634     3509     3510 1
    3635     3509     3520 1
    3636     3510     3516 1
    3637     3511     3512 1
    3638     3511     3515 1
    3639     3512     3513 1
    3640     3513     3514 1
    3641     3513     3517 1
    3642     3514     3515 1
    3643     3518     3519 1
    3644     3518     3526 1
    3645     3519     3520 1
    3646     3519     3527 1
    3647     3520     3521 1
    3648     3521     3522 1
    3649     3521     3525 1
    3650     3522     3523 1
    3651     3523     3524 1
    3652     3524     3525 1
    3653     3525     3526 1
    3654     3526     3660 1
    3655     3528     3529 1
    3656     3528     3569 1
    3657     3528     3570 1
    3658     3528     3571 1
    3659     3529     3530 1
    3660     3529     3572 1
    3661     3529     3573 1
    3662     3530     3531 1
    3663     3530     3574 1
    3664     3530     3575 1
    3665     3531     3532 1
    3666     3531     3576 1
    3667     3531     3577 1
    3668     3532     3533 1
    3669     3532     3578 1
    3670     3532     3579 1
    3671     3533     3534 1
    3672     3533     3580 1
    3673     3533     3581 1
    3674     3534     3535 1
    3675     3534     3582 1
    3676     3534     3583 1
    3677     3535     3536 1
    3678     3535     3584 1
    3679     3535     3585 1
    3680     3536     3537 1
    3681     3536     3586 1
    3682     3536     3587 1
    3683     3537     3538 1
    3684     3537     3588 1
    3685     3537     3589 1
    3686     3538     3539 1
    3687     3538     3547 1
    3688     3538     3590 1
    3689     3539     3540 1
    3690     3539     3591 1
    3691     3539     3592 1
    3692     3540     3541 1
    3693     3540     3593 1
    3694     3540     3594 1
    3695     3541     3542 1
    3696     3541     3595 1
    3697     3541     3596 1
    3698     3542     3543 1
    3699     3542     3597 1
    3700     3542     3598 1
    3701     3543     3544 1
    3702     3543     3599 1
    3703     3543     3600 1
    3704     3544     3545 1
    3705     3544     3601 1
    3706     3544     3602 1
    3707     3545     3546 1
    3708     3545     3603 1
    3709     3545     3604 1
    3710     3546     3605 1
    3711     3546     3606 1
    3712     3546     3607 1
    3713     3547     3548 1
    3714     3547     3608 1
    3715     3547     3609 1
    3716     3548     3549 1
    3717     3549     3550 1
    3718     3549     3610 1
    3719     3549     3611 1
    3720     3550     3551 1
    3721     3550     3559 1
    3722     3550     3612 1
    3723     3551     3552 1
    3724     3551     3613 1
    3725     3551     3614 1
    3726     3552     3553 1
    3727     3552     3615 1
    3728     3552     3616 1
    3729     3553     3554 1
    3730     3553     3617 1
    3731     3553     3618 1
    3732     3554     3555 1
    3733     3554     3619 1
    3734     3554     3620 1
    3735     3555     3556 1
    3736     3555     3621 1
    3737     3555     3622 1
    3738     3556     3557 1
    3739     3556     3623 1
    3740     3556     3624 1
    3741     3557     3558 1
    3742     3557     3625 1
    3743     3557     3626 1
    3744     3558     3627 1
    3745     3558     3628 1
    3746     3558     3629 1
    3747     3559     3560 1
    3748     3559     3630 1
    3749     3559     3631 1
    3750     3560     3561 1
    3751     3560     3632 1
    3752     3560     3633 1
    3753     3561     3562 1
    3754     3561     3634 1
    3755     3561     3635 1
    3756     3562     3563 1
    3757     3562     3636 1
    3758     3562     3637 1
    3759     3563     3564 1
    3760     3563     3638 1
    3761     3563     3639 1
    3762     3564     3565 1
    3763     3564     3640 1
    3764     3564     3641 1
    3765     3565     3566 1
    3766     3565     3642 1
    3767     3565     3643 1
    3768     3566     3567 1
    3769     3566     3644 1
    3770     3566     3645 1
    3771     3567     3568 1
    3772     3567     3646 1
    3773     3567     3647 1
    3774     3568     3648 1
    3775     3568     3649 1
    3776     3568     3650 1
    3777     3651     3652 1
    3778     3651     3658 1
    3779     3651     3694 1
    3780     3652     3653 1
    3781     3652     3656 1
    3782     3653     3654 1
    3783     3653     3657 1
    3784     3654     3655 1
    3785     3655     3656 1
    3786     3655     3666 1
    3787     3656     3662 1
    3788     3657     3658 1
    3789     3657     3661 1
    3790     3658     3659 1
    3791     3659     3660 1
    3792     3659     3663 1
    3793     3660     3661 1
    3794     3664     3665 1
    3795     3664     3672 1
    3796     3665     3666 1
    3797     3665     3673 1
    3798     3666     3667 1
    3799     3667     3668 1
    3800     3667     3671 1
    3801     3668     3669 1
    3802     3669     3670 1
    3803     3670     3671 1
    3804     3671     3672 1
    3805     3672     3806 1
    3806     3674     3675 1
    3807     3674     3715 1
    3808     3674     3716 1
    3809     3674     3717 1
    3810     3675     3676 1
    3811     3675     3718 1
    3812     3675     3719 1
    3813     3676     3677 1
    3814     3676     3720 1
    3815     3676     3721 1
    3816     3677     3678 1
    3817     3677     3722 1
    3818     3677     3723 1
    3819     3678     3679 1
    3820     3678     3724 1
    3821     3678     3725 1
    3822     3679     3680 1
    3823     3679     3726 1
    3824     3679     3727 1
    3825     3680     3681 1
    3826     3680     3728 1
    3827     3680     3729 1
    3828     3681     3682 1
    3829     3681     3730 1
    3830     3681     3731 1
    3831     3682     3683 1
    3832     3682     3732 1
    3833     3682     3733 1
    3834     3683     3684 1
    3835     3683     3734 1
    3836     3683     3735 1
    3837     3684     3685 1
    3838     3684     3693 1
    3839     3684     3736 1
    3840     3685     3686 1
    3841     3685     3737 1
    3842     3685     3738 1
    3843     3686     3687 1
    3844     3686     3739 1
    3845     3686     3740 1
    3846     3687     3688 1
    3847     3687     3741 1
    3848     3687     3742 1
    3849     3688     3689 1
    3850     3688     3743 1
    3851     3688     3744 1
    3852     3689     3690 1
    3853     3689     3745 1
    3854     3689     3746 1
    3855     3690     3691 1
    3856     3690     3747 1
    3857     3690     3748 1
    3858     3691     3692 1
    3859     3691     3749 1
    3860     3691     3750 1
    3861     3692     3751 1
    3862     3692     3752 1
    3863     3692     3753 1
    3864     3693     3694 1
    3865     3693     3754 1
    3866     3693     3755 1
    3867     3694     3695 1
    3868     3695     3696 1
    3869     3695     3756 1
    3870     3695     3757 1
    3871     3696     3697 1
    3872     3696     3705 1
    3873     3696     3758 1
    3874     3697     3698 1
    3875     3697     3759 1
    3876     3697     3760 1
    3877     3698     3699 1
    3878     3698     3761 1
    3879     3698     3762 1
    3880     3699     3700 1
    3881     3699     3763 1
    3882     3699     3764 1
    3883     3700     3701 1
    3884     3700     3765 1
    3885     3700     3766 1
    3886     3701     3702 1
    3887     3701     3767 1
    3888     3701     3768 1
    3889     3702     3703 1
    3890     3702     3769 1
    3891     3702     3770 1
    3892     3703     3704 1
    3893     3703     3771 1
    3894     3703     3772 1
    3895     3704     3773 1
    3896     3704     3774 1
    3897     3704     3775 1
    3898     3705     3706 1
    3899     3705     3776 1
    3900     3705     3777 1
    3901     3706     3707 1
    3902     3706     3778 1
    3903     3706     3779 1
    3904     3707     3708 1
    3905     3707     3780 1
    3906     3707     3781 1
    3907     3708     3709 1
    3908     3708     3782 1
    3909     3708     3783 1
    3910     3709     3710 1
    3911     3709     3784 1
    3912     3709     3785 1
    3913     3710     3711 1
    3914     3710     3786 1
    3915     3710     3787 1
    3916     3711     3712 1
    3917     3711     3788 1
    3918     3711     3789 1
    3919     3712     3713 1
    3920     3712     3790 1
    3921     3712     3791 1
    3922     3713     3714 1
    3923     3713     3792 1
    3924     3713     3793 1
    3925     3714     3794 1
    3926     3714     3795 1
    3927     3714     3796 1
    3928     3797     3798 1
    3929     3797     3804 1
    3930     3797     3840 1
    3931     3798     3799 1
    3932     3798     3802 1
    3933     3799     3800 1
    3934     3799     3803 1
    3935     3800     3801 1
    3936     3801     3802 1
    3937     3801     3812 1
    3938     3802     3808 1
    3939     3803     3804 1
    3940     3803     3807 1
    3941     3804     3805 1
    3942     3805     3806 1
    3943     3805     3809 1
    3944     3806     3807 1
    3945     3810     3811 1
    3946     3810     3818 1
    3947     3811     3812 1
    3948     3811     3819 1
    3949     3812     3813 1
    3950     3813     3814 1
    3951     3813     3817 1
    3952     3814     3815 1
    3953     3815     3816 1
    3954     3816     3817 1
    3955     3817     3818 1
    3956     3818     3952 1
    3957     3820     3821 1
    3958     3820     3861 1
    3959     3820     3862 1
    3960     3820     3863 1
    3961     3821     3822 1
    3962     3821     3864 1
    3963     3821     3865 1
    3964     3822     3823 1
    3965     3822     3866 1
    3966     3822     3867 1
    3967     3823     3824 1
    3968     3823     3868 1
    3969     3823     3869 1
    3970     3824     3825 1
    3971     3824     3870 1
    3972     3824     3871 1
    3973     3825     3826 1
    3974     3825     3872 1
    3975     3825     3873 1
    3976     3826     3827 1
    3977     3826     3874 1
    3978     3826     3875 1
    3979     3827     3828 1
    3980     3827     3876 1
    3981     3827     3877 1
    3982     3828     3829 1
    3983     3828     3878 1
    3984     3828     3879 1
    3985     3829     3830 1
    3986     3829     3880 1
    3987     3829     3881 1
    3988     3830     3831 1
    3989     3830     3839 1
    3990     3830     3882 1
    3991     3831     3832 1
    3992     3831     3883 1
    3993     3831     3884 1
    3994     3832     3833 1
    3995     3832     3885 1
    3996     3832     3886 1
    3997     3833     3834 1
    3998     3833     3887 1
    3999     3833     3888 1
    4000     3834     3835 1
    4001     3834     3889 1
    4002     3834     3890 1
    4003     3835     3836 1
    4004     3835     3891 1
    4005     3835     3892 1
    4006     3836     3837 1
    4007     3836     3893 1
    4008     3836     3894 1
    4009     3837     3838 1
    4010     3837     3895 1
    4011     3837     3896 1
    4012     3838     3897 1
    4013     3838     3898 1
    4014     3838     3899 1
    4015     3839     3840 1
    4016     3839     3900 1
    4017     3839     3901 1
    4018     3840     3841 1
    4019     3841     3842 1
    4020     3841     3902 1
    4021     3841     3903 1
    4022     3842     3843 1
    4023     3842     3851 1
    4024     3842     3904 1
    4025     3843     3844 1
    4026     3843     3905 1
    4027     3843     3906 1
    4028     3844     3845 1
    4029     3844     3907 1
    4030     3844     3908 1
    4031     3845     3846 1
    4032     3845     3909 1
    4033     3845     3910 1
    4034     3846     3847 1
    4035     3846     3911 1
    4036     3846     3912 1
    4037     3847     3848 1
    4038     3847     3913 1
    4039     3847     3914 1
    4040     3848     3849 1
    4041     3848     3915 1
    4042     3848     3916 1
    4043     3849     3850 1
    4044     3849     3917 1
    4045     3849     3918 1
    4046     3850     3919 1
    4047     3850     3920 1
    4048     3850     3921 1
    4049     3851     3852 1
    4050     3851     3922 1
    4051     3851     3923 1
    4052     3852     3853 1
    4053     3852     3924 1
    4054     3852     3925 1
    4055     3853     3854 1
    4056     3853     3926 1
    4057     3853     3927 1
    4058     3854     3855 1
    4059     3854     3928 1
    4060     3854     3929 1
    4061     3855     3856 1
    4062     3855     3930 1
    4063     3855     3931 1
    4064     3856     3857 1
    4065     3856     3932 1
    4066     3856     3933 1
    4067     3857     3858 1
    4068     3857     3934 1
    4069     3857     3935 1
    4070     3858     3859 1
    4071     3858     3936 1
    4072     3858     3937 1
    4073     3859     3860 1
    4074     3859     3938 1
    4075     3859     3939 1
    4076     3860     3940 1
    4077     3860     3941 1
    4078     3860     3942 1
    4079     3943     3944 1
    4080     3943     3950 1
    4081     3943     3986 1
    4082     3944     3945 1
    4083     3944     3948 1
    4084     3945     3946 1
    4085     3945     3949 1
    4086     3946     3947 1
    4087     3947     3948 1
    4088     3947     3958 1
    4089     3948     3954 1
    4090     3949     3950 1
    4091     3949     3953 1
    4092     3950     3951 1
    4093     3951     3952 1
    4094     3951     3955 1
    4095     3952     3953 1
    4096     3956     3957 1
    4097     3956     3964 1
    4098     3957     3958 1
    4099     3957     3965 1
    4100     3958     3959 1
    4101     3959     3960 1
    4102     3959     3963 1
    4103     3960     3961 1
    4104     3961     3962 1
    4105     3962     3963 1
    4106     3963     3964 1
    4107     3964     4098 1
    4108     3966     3967 1
    4109     3966     4007 1
    4110     3966     4008 1
    4111     3966     4009 1
    4112     3967     3968 1
    4113     3967     4010 1
    4114     3967     4011 1
    4115     3968     3969 1
    4116     3968     4012 1
    4117     3968     4013 1
    4118     3969     3970 1
    4119     3969     4014 1
    4120     3969     4015 1
    4121     3970     3971 1
    4122     3970     4016 1
    4123     3970     4017 1
    4124     3971     3972 1
    4125     3971     4018 1
    4126     3971     4019 1
    4127     3972     3973 1
    4128     3972     4020 1
    4129     3972     4021 1
    4130     3973     3974 1
    4131     3973     4022 1
    4132     3973     4023 1
    4133     3974     3975 1
    4134     3974     4024 1
    4135     3974     4025 1
    4136     3975     3976 1
    4137     3975     4026 1
    4138     3975     4027 1
    4139     3976     3977 1
    4140     3976     3985 1
    4141     3976     4028 1
    4142     3977     3978 1
    4143     3977     4029 1
    4144     3977     4030 1
    4145     3978     3979 1
    4146     3978     4031 1
    4147     3978     4032 1
    4148     3979     3980 1
    4149     3979     4033 1
    4150     3979     4034 1
    4151     3980     3981 1
    4152     3980     4035 1
    4153     3980     4036 1
    4154     3981     3982 1
    4155     3981     4037 1
    4156     3981     4038 1
    4157     3982     3983 1
    4158     3982     4039 1
    4159     3982     4040 1
    4160     3983     3984 1
    4161     3983     4041 1
    4162     3983     4042 1
    4163     3984     4043 1
    4164     3984     4044 1
    4165     3984     4045 1
    4166     3985     3986 1
    4167     3985     4046 1
    4168     3985     4047 1
    4169     3986     3987 1
    4170     3987     3988 1
    4171     3987     4048 1
    4172     3987     4049 1
    4173     3988     3989 1
    4174     3988     3997 1
    4175     3988     4050 1
    4176     3989     3990 1
    4177     3989     4051 1
    4178     3989     4052 1
    4179     3990     3991 1
    4180     3990     4053 1
    4181     3990     4054 1
    4182     3991     3992 1
    4183     3991     4055 1
    4184     3991     4056 1
    4185     3992     3993 1
    4186     3992     4057 1
    4187     3992     4058 1
    4188     3993     3994 1
    4189     3993     4059 1
    4190     3993     4060 1
    4191     3994     3995 1
    4192     3994     4061 1
    4193     3994     4062 1
    4194     3995     3996 1
    4195     3995     4063 1
    4196     3995     4064 1
    4197     3996     4065 1
    4198     3996     4066 1
    4199     3996     4067 1
    4200     3997     3998 1
    4201     3997     4068 1
    4202     3997     4069 1
    4203     3998     3999 1
    4204     3998     4070 1
    4205     3998     4071 1
    4206     3999     4000 1
    4207     3999     4072 1
    4208     3999     4073 1
    4209     4000     4001 1
    4210     4000     4074 1
    4211     4000     4075 1
    4212     4001     4002 1
    4213     4001     4076 1
    4214     4001     4077 1
    4215     4002     4003 1
    4216     4002     4078 1
    4217     4002     4079 1
    4218     4003     4004 1
    4219     4003     4080 1
    4220     4003     4081 1
    4221     4004     4005 1
    4222     4004     4082 1
    4223     4004     4083 1
    4224     4005     4006 1
    4225     4005     4084 1
    4226     4005     4085 1
    4227     4006     4086 1
    4228     4006     4087 1
    4229     4006     4088 1
    4230     4089     4090 1
    4231     4089     4096 1
    4232     4089     4132 1
    4233     4090     4091 1
    4234     4090     4094 1
    4235     4091     4092 1
    4236     4091     4095 1
    4237     4092     4093 1
    4238     4093     4094 1
    4239     4093     4104 1
    4240     4094     4100 1
    4241     4095     4096 1
    4242     4095     4099 1
    4243     4096     4097 1
    4244     4097     4098 1
    4245     4097     4101 1
    4246     4098     4099 1
    4247     4102     4103 1
    4248     4102     4110 1
    4249     4103     4104 1
    4250     4103     4111 1
    4251     4104     4105 1
    4252     4105     4106 1
    4253     4105     4109 1
    4254     4106     4107 1
    4255     4107     4108 1
    4256     4108     4109 1
    4257     4109     4110 1
    4258     4110     4244 1
    4259     4112     4113 1
    4260     4112     4153 1
    4261     4112     4154 1
    4262     4112     4155 1
    4263     4113     4114 1
    4264     4113     4156 1
    4265     4113     4157 1
    4266     4114     4115 1
    4267     4114     4158 1
    4268     4114     4159 1
    4269     4115     4116 1
    4270     4115     4160 1
    4271     4115     4161 1
    4272     4116     4117 1
    4273     4116     4162 1
    4274     4116     4163 1
    4275     4117     4118 1
    4276     4117     4164 1
    4277     4117     4165 1
    4278     4118     4119 1
    4279     4118     4166 1
    4280     4118     4167 1
    4281     4119     4120 1
    4282     4119     4168 1
    4283     4119     4169 1
    4284     4120     4121 1
    4285     4120     4170 1
    4286     4120     4171 1
    4287     4121     4122 1
    4288     4121     4172 1
    4289     4121     4173 1
    4290     4122     4123 1
    4291     4122     4131 1
    4292     4122     4174 1
    4293     4123     4124 1
    4294     4123     4175 1
    4295     4123     4176 1
    4296     4124     4125 1
    4297     4124     4177 1
    4298     4124     4178 1
    4299     4125     4126 1
    4300     4125     4179 1
    4301     4125     4180 1
    4302     4126     4127 1
    4303     4126     4181 1
    4304     4126     4182 1
    4305     4127     4128 1
    4306     4127     4183 1
    4307     4127     4184 1
    4308     4128     4129 1
    4309     4128     4185 1
    4310     4128     4186 1
    4311     4129     4130 1
    4312     4129     4187 1
    4313     4129     4188 1
    4314     4130     4189 1
    4315     4130     4190 1
    4316     4130     4191 1
    4317     4131     4132 1
    4318     4131     4192 1
    4319     4131     4193 1
    4320     4132     4133 1
    4321     4133     4134 1
    4322     4133     4194 1
    4323     4133     4195 1
    4324     4134     4135 1
    4325     4134     4143 1
    4326     4134     4196 1
    4327     4135     4136 1
    4328     4135     4197 1
    4329     4135     4198 1
    4330     4136     4137 1
    4331     4136     4199 1
    4332     4136     4200 1
    4333     4137     4138 1
    4334     4137     4201 1
    4335     4137     4202 1
    4336     4138     4139 1
    4337     4138     4203 1
    4338     4138     4204 1
    4339     4139     4140 1
    4340     4139     4205 1
    4341     4139     4206 1
    4342     4140     4141 1
    4343     4140     4207 1
    4344     4140     4208 1
    4345     4141     4142 1
    4346     4141     4209 1
    4347     4141     4210 1
    4348     4142     4211 1
    4349     4142     4212 1
    4350     4142     4213 1
    4351     4143     4144 1
    4352     4143     4214 1
    4353     4143     4215 1
    4354     4144     4145 1
    4355     4144     4216 1
    4356     4144     4217 1
    4357     4145     4146 1
    4358     4145     4218 1
    4359     4145     4219 1
    4360     4146     4147 1
    4361     4146     4220 1
    4362     4146     4221 1
    4363     4147     4148 1
    4364     4147     4222 1
    4365     4147     4223 1
    4366     4148     4149 1
    4367     4148     4224 1
    4368     4148     4225 1
    4369     4149     4150 1
    4370     4149     4226 1
    4371     4149     4227 1
    4372     4150     4151 1
    4373     4150     4228 1
    4374     4150     4229 1
    4375     4151     4152 1
    4376     4151     4230 1
    4377     4151     4231 1
    4378     4152     4232 1
    4379     4152     4233 1
    4380     4152     4234 1
    4381     4235     4236 1
    4382     4235     4242 1
    4383     4235     4278 1
    4384     4236     4237 1
    4385     4236     4240 1
    4386     4237     4238 1
    4387     4237     4241 1
    4388     4238     4239 1
    4389     4239     4240 1
    4390     4239     4250 1
    4391     4240     4246 1
    4392     4241     4242 1
    4393     4241     4245 1
    4394     4242     4243 1
    4395     4243     4244 1
    4396     4243     4247 1
    4397     4244     4245 1
    4398     4248     4249 1
    4399     4248     4256 1
    4400     4249     4250 1
    4401     4249     4257 1
    4402     4250     4251 1
    4403     4251     4252 1
    4404     4251     4255 1
    4405     4252     4253 1
    4406     4253     4254 1
    4407     4254     4255 1
    4408     4255     4256 1
    4409     4256     4390 1
    4410     4258     4259 1
    4411     4258     4299 1
    4412     4258     4300 1
    4413     4258     4301 1
    4414     4259     4260 1
    4415     4259     4302 1
    4416     4259     4303 1
    4417     4260     4261 1
    4418     4260     4304 1
    4419     4260     4305 1
    4420     4261     4262 1
    4421     4261     4306 1
    4422     4261     4307 1
    4423     4262     4263 1
    4424     4262     4308 1
    4425     4262     4309 1
    4426     4263     4264 1
    4427     4263     4310 1
    4428     4263     4311 1
    4429     4264     4265 1
    4430     4264     4312 1
    4431     4264     4313 1
    4432     4265     4266 1
    4433     4265     4314 1
    4434     4265     4315 1
    4435     4266     4267 1
    4436     4266     4316 1
    4437     4266     4317 1
    4438     4267     4268 1
    4439     4267     4318 1
    4440     4267     4319 1
    4441     4268     4269 1
    4442     4268     4277 1
    4443     4268     4320 1
    4444     4269     4270 1
    4445     4269     4321 1
    4446     4269     4322 1
    4447     4270     4271 1
    4448     4270     4323 1
    4449     4270     4324 1
    4450     4271     4272 1
    4451     4271     4325 1
    4452     4271     4326 1
    4453     4272     4273 1
    4454     4272     4327 1
    4455     4272     4328 1
    4456     4273     4274 1
    4457     4273     4329 1
    4458     4273     4330 1
    4459     4274     4275 1
    4460     4274     4331 1
    4461     4274     4332 1
    4462     4275     4276 1
    4463     4275     4333 1
    4464     4275     4334 1
    4465     4276     4335 1
    4466     4276     4336 1
    4467     4276     4337 1
    4468     4277     4278 1
    4469     4277     4338 1
    4470     4277     4339 1
    4471     4278     4279 1
    4472     4279     4280 1
    4473     4279     4340 1
    4474     4279     4341 1
    4475     4280     4281 1
    4476     4280     4289 1
    4477     4280     4342 1
    4478     4281     4282 1
    4479     4281     4343 1
    4480     4281     4344 1
    4481     4282     4283 1
    4482     4282     4345 1
    4483     4282     4346 1
    4484     4283     4284 1
    4485     4283     4347 1
    4486     4283     4348 1
    4487     4284     4285 1
    4488     4284     4349 1
    4489     4284     4350 1
    4490     4285     4286 1
    4491     4285     4351 1
    4492     4285     4352 1
    4493     4286     4287 1
    4494     4286     4353 1
    4495     4286     4354 1
    4496     4287     4288 1
    4497     4287     4355 1
    4498     4287     4356 1
    4499     4288     4357 1
    4500     4288     4358 1
    4501     4288     4359 1
    4502     4289     4290 1
    4503     4289     4360 1
    4504     4289     4361 1
    4505     4290     4291 1
    4506     4290     4362 1
    4507     4290     4363 1
    4508     4291     4292 1
    4509     4291     4364 1
    4510     4291     4365 1
    4511     4292     4293 1
    4512     4292     4366 1
    4513     4292     4367 1
    4514     4293     4294 1
    4515     4293     4368 1
    4516     4293     4369 1
    4517     4294     4295 1
    4518     4294     4370 1
    4519     4294     4371 1
    4520     4295     4296 1
    4521     4295     4372 1
    4522     4295     4373 1
    4523     4296     4297 1
    4524     4296     4374 1
    4525     4296     4375 1
    4526     4297     4298 1
    4527     4297     4376 1
    4528     4297     4377 1
    4529     4298     4378 1
    4530     4298     4379 1
    4531     4298     4380 1
    4532     4381     4382 1
    4533     4381     4388 1
    4534     4381     4424 1
    4535     4382     4383 1
    4536     4382     4386 1
    4537     4383     4384 1
    4538     4383     4387 1
    4539     4384     4385 1
    4540     4385     4386 1
    4541     4385     4396 1
    4542     4386     4392 1
    4543     4387     4388 1
    4544     4387     4391 1
    4545     4388     4389 1
    4546     4389     4390 1
    4547     4389     4393 1
    4548     4390     4391 1
    4549     4394     4395 1
    4550     4394     4402 1
    4551     4395     4396 1
    4552     4395     4403 1
    4553     4396     4397 1
    4554     4397     4398 1
    4555     4397     4401 1
    4556     4398     4399 1
    4557     4399     4400 1
    4558     4400     4401 1
    4559     4401     4402 1
    4560     4402     4536 1
    4561     4404     4405 1
    4562     4404     4445 1
    4563     4404     4446 1
    4564     4404     4447 1
    4565     4405     4406 1
    4566     4405     4448 1
    4567     4405     4449 1
    4568     4406     4407 1
    4569     4406     4450 1
    4570     4406     4451 1
    4571     4407     4408 1
    4572     4407     4452 1
    4573     4407     4453 1
    4574     4408     4409 1
    4575     4408     4454 1
    4576     4408     4455 1
    4577     4409     4410 1
    4578     4409     4456 1
    4579     4409     4457 1
    4580     4410     4411 1
    4581     4410     4458 1
    4582     4410     4459 1
    4583     4411     4412 1
    4584     4411     4460 1
    4585     4411     4461 1
    4586     4412     4413 1
    4587     4412     4462 1
    4588     4412     4463 1
    4589     4413     4414 1
    4590     4413     4464 1
    4591     4413     4465 1
    4592     4414     4415 1
    4593     4414     4423 1
    4594     4414     4466 1
    4595     4415     4416 1
    4596     4415     4467 1
    4597     4415     4468 1
    4598     4416     4417 1
    4599     4416     4469 1
    4600     4416     4470 1
    4601     4417     4418 1
    4602     4417     4471 1
    4603     4417     4472 1
    4604     4418     4419 1
    4605     4418     4473 1
    4606     4418     4474 1
    4607     4419     4420 1
    4608     4419     4475 1
    4609     4419     4476 1
    4610     4420     4421 1
    4611     4420     4477 1
    4612     4420     4478 1
    4613     4421     4422 1
    4614     4421     4479 1
    4615     4421     4480 1
    4616     4422     4481 1
    4617     4422     4482 1
    4618     4422     4483 1
    4619     4423     4424 1
    4620     4423     4484 1
    4621     4423     4485 1
    4622     4424     4425 1
    4623     4425     4426 1
    4624     4425     4486 1
    4625     4425     4487 1
    4626     4426     4427 1
    4627     4426     4435 1
    4628     4426     4488 1
    4629     4427     4428 1
    4630     4427     4489 1
    4631     4427     4490 1
    4632     4428     4429 1
    4633     4428     4491 1
    4634     4428     4492 1
    4635     4429     4430 1
    4636     4429     4493 1
    4637     4429     4494 1
    4638     4430     4431 1
    4639     4430     4495 1
    4640     4430     4496 1
    4641     4431     4432 1
    4642     4431     4497 1
    4643     4431     4498 1
    4644     4432     4433 1
    4645     4432     4499 1
    4646     4432     4500 1
    4647     4433     4434 1
    4648     4433     4501 1
    4649     4433     4502 1
    4650     4434     4503 1
    4651     4434     4504 1
    4652     4434     4505 1
    4653     4435     4436 1
    4654     4435     4506 1
    4655     4435     4507 1
    4656     4436     4437 1
    4657     4436     4508 1
    4658     4436     4509 1
    4659     4437     4438 1
    4660     4437     4510 1
    4661     4437     4511 1
    4662     4438     4439 1
    4663     4438     4512 1
    4664     4438     4513 1
    4665     4439     4440 1
    4666     4439     4514 1
    4667     4439     4515 1
    4668     4440     4441 1
    4669     4440     4516 1
    4670     4440     4517 1
    4671     4441     4442 1
    4672     4441     4518 1
    4673     4441     4519 1
    4674     4442     4443 1
    4675     4442     4520 1
    4676     4442     4521 1
    4677     4443     4444 1
    4678     4443     4522 1
    4679     4443     4523 1
    4680     4444     4524 1
    4681     4444     4525 1
    4682     4444     4526 1
    4683     4527     4528 1
    4684     4527     4534 1
    4685     4527     4570 1
    4686     4528     4529 1
    4687     4528     4532 1
    4688     4529     4530 1
    4689     4529     4533 1
    4690     4530     4531 1
    4691     4531     4532 1
    4692     4531     4542 1
    4693     4532     4538 1
    4694     4533     4534 1
    4695     4533     4537 1
    4696     4534     4535 1
    4697     4535     4536 1
    4698     4535     4539 1
    4699     4536     4537 1
    4700     4540     4541 1
    4701     4540     4548 1
    4702     4541     4542 1
    4703     4541     4549 1
    4704     4542     4543 1
    4705     4543     4544 1
    4706     4543     4547 1
    4707     4544     4545 1
    4708     4545     4546 1
    4709     4546     4547 1
    4710     4547     4548 1
    4711     4548     4682 1
    4712     4550     4551 1
    4713     4550     4591 1
    4714     4550     4592 1
    4715     4550     4593 1
    4716     4551     4552 1
    4717     4551     4594 1
    4718     4551     4595 1
    4719     4552     4553 1
    4720     4552     4596 1
    4721     4552     4597 1
    4722     4553     4554 1
    4723     4553     4598 1
    4724     4553     4599 1
    4725     4554     4555 1
    4726     4554     4600 1
    4727     4554     4601 1
    4728     4555     4556 1
    4729     4555     4602 1
    4730     4555     4603 1
    4731     4556     4557 1
    4732     4556     4604 1
    4733     4556     4605 1
    4734     4557     4558 1
    4735     4557     4606 1
    4736     4557     4607 1
    4737     4558     4559 1
    4738     4558     4608 1
    4739     4558     4609 1
    4740     4559     4560 1
    4741     4559     4610 1
    4742     4559     4611 1
    4743     4560     4561 1
    4744     4560     4569 1
    4745     4560     4612 1
    4746     4561     4562 1
    4747     4561     4613 1
    4748     4561     4614 1
    4749     4562     4563 1
    4750     4562     4615 1
    4751     4562     4616 1
    4752     4563     4564 1
    4753     4563     4617 1
    4754     4563     4618 1
    4755     4564     4565 1
    4756     4564     4619 1
    4757     4564     4620 1
    4758     4565     4566 1
    4759     4565     4621 1
    4760     4565     4622 1
    4761     4566     4567 1
    4762     4566     4623 1
    4763     4566     4624 1
    4764     4567     4568 1
    4765     4567     4625 1
    4766     4567     4626 1
    4767     4568     4627 1
    4768     4568     4628 1
    4769     4568     4629 1
    4770     4569     4570 1
    4771     4569     4630 1
    4772     4569     4631 1
    4773     4570     4571 1
    4774     4571     4572 1
    4775     4571     4632 1
    4776     4571     4633 1
    4777     4572     4573 1
    4778     4572     4581 1
    4779     4572     4634 1
    4780     4573     4574 1
    4781     4573     4635 1
    4782     4573     4636 1
    4783     4574     4575 1
    4784     4574     4637 1
    4785     4574     4638 1
    4786     4575     4576 1
    4787     4575     4639 1
    4788     4575     4640 1
    4789     4576     4577 1
    4790     4576     4641 1
    4791     4576     4642 1
    4792     4577     4578 1
    4793     4577     4643 1
    4794     4577     4644 1
    4795     4578     4579 1
    4796     4578     4645 1
    4797     4578     4646 1
    4798     4579     4580 1
    4799     4579     4647 1
    4800     4579     4648 1
    4801     4580     4649 1
    4802     4580     4650 1
    4803     4580     4651 1
    4804     4581     4582 1
    4805     4581     4652 1
    4806     4581     4653 1
    4807     4582     4583 1
    4808     4582     4654 1
    4809     4582     4655 1
    4810     4583     4584 1
    4811     4583     4656 1
    4812     4583     4657 1
    4813     4584     4585 1
    4814     4584     4658 1
    4815     4584     4659 1
    4816     4585     4586 1
    4817     4585     4660 1
    4818     4585     4661 1
    4819     4586     4587 1
    4820     4586     4662 1
    4821     4586     4663 1
    4822     4587     4588 1
    4823     4587     4664 1
    4824     4587     4665 1
    4825     4588     4589 1
    4826     4588     4666 1
    4827     4588     4667 1
    4828     4589     4590 1
    4829     4589     4668 1
    4830     4589     4669 1
    4831     4590     4670 1
    4832     4590     4671 1
    4833     4590     4672 1
    4834     4673     4674 1
    4835     4673     4680 1
    4836     4673     4716 1
    4837     4674     4675 1
    4838     4674     4678 1
    4839     4675     4676 1
    4840     4675     4679 1
    4841     4676     4677 1
    4842     4677     4678 1
    4843     4677     4688 1
    4844     4678     4684 1
    4845     4679     4680 1
    4846     4679     4683 1
    4847     4680     4681 1
    4848     4681     4682 1
    4849     4681     4685 1
    4850     4682     4683 1
    4851     4686     4687 1
    4852     4686     4694 1
    4853     4687     4688 1
    4854     4687     4695 1
    4855     4688     4689 1
    4856     4689     4690 1
    4857     4689     4693 1
    4858     4690     4691 1
    4859     4691     4692 1
    4860     4692     4693 1
    4861     4693     4694 1
    4862     4694     4828 1
    4863     4696     4697 1
    4864     4696     4737 1
    4865     4696     4738 1
    4866     4696     4739 1
    4867     4697     4698 1
    4868     4697     4740 1
    4869     4697     4741 1
    4870     4698     4699 1
    4871     4698     4742 1
    4872     4698     4743 1
    4873     4699     4700 1
    4874     4699     4744 1
    4875     4699     4745 1
    4876     4700     4701 1
    4877     4700     4746 1
    4878     4700     4747 1
    4879     4701     4702 1
    4880     4701     4748 1
    4881     4701     4749 1
    4882     4702     4703 1
    4883     4702     4750 1
    4884     4702     4751 1
    4885     4703     4704 1
    4886     4703     4752 1
    4887     4703     4753 1
    4888     4704     4705 1
    4889     4704     4754 1
    4890     4704     4755 1
    4891     4705     4706 1
    4892     4705     4756 1
    4893     4705     4757 1
    4894     4706     4707 1
    4895     4706     4715 1
    4896     4706     4758 1
    4897     4707     4708 1
    4898     4707     4759 1
    4899     4707     4760 1
    4900     4708     4709 1
    4901     4708     4761 1
    4902     4708     4762 1
    4903     4709     4710 1
    4904     4709     4763 1
    4905     4709     4764 1
    4906     4710     4711 1
    4907     4710     4765 1
    4908     4710     4766 1
    4909     4711     4712 1
    4910     4711     4767 1
    4911     4711     4768 1
    4912     4712     4713 1
    4913     4712     4769 1
    4914     4712     4770 1
    4915     4713     4714 1
    4916     4713     4771 1
    4917     4713     4772 1
    4918     4714     4773 1
    4919     4714     4774 1
    4920     4714     4775 1
    4921     4715     4716 1
    4922     4715     4776 1
    4923     4715     4777 1
    4924     4716     4717 1
    4925     4717     4718 1
    4926     4717     4778 1
    4927     4717     4779 1
    4928     4718     4719 1
    4929     4718     4727 1
    4930     4718     4780 1
    4931     4719     4720 1
    4932     4719     4781 1
    4933     4719     4782 1
    4934     4720     4721 1
    4935     4720     4783 1
    4936     4720     4784 1
    4937     4721     4722 1
    4938     4721     4785 1
    4939     4721     4786 1
    4940     4722     4723 1
    4941     4722     4787 1
    4942     4722     4788 1
    4943     4723     4724 1
    4944     4723     4789 1
    4945     4723     4790 1
    4946     4724     4725 1
    4947     4724     4791 1
    4948     4724     4792 1
    4949     4725     4726 1
    4950     4725     4793 1
    4951     4725     4794 1
    4952     4726     4795 1
    4953     4726     4796 1
    4954     4726     4797 1
    4955     4727     4728 1
    4956     4727     4798 1
    4957     4727     4799 1
    4958     4728     4729 1
    4959     4728     4800 1
    4960     4728     4801 1
    4961     4729     4730 1
    4962     4729     4802 1
    4963     4729     4803 1
    4964     4730     4731 1
    4965     4730     4804 1
    4966     4730     4805 1
    4967     4731     4732 1
    4968     4731     4806 1
    4969     4731     4807 1
    4970     4732     4733 1
    4971     4732     4808 1
    4972     4732     4809 1
    4973     4733     4734 1
    4974     4733     4810 1
    4975     4733     4811 1
    4976     4734     4735 1
    4977     4734     4812 1
    4978     4734     4813 1
    4979     4735     4736 1
    4980     4735     4814 1
    4981     4735     4815 1
    4982     4736     4816 1
    4983     4736     4817 1
    4984     4736     4818 1
    4985     4819     4820 1
    4986     4819     4826 1
    4987     4819     4862 1
    4988     4820     4821 1
    4989     4820     4824 1
    4990     4821     4822 1
    4991     4821     4825 1
    4992     4822     4823 1
    4993     4823     4824 1
    4994     4823     4834 1
    4995     4824     4830 1
    4996     4825     4826 1
    4997     4825     4829 1
    4998     4826     4827 1
    4999     4827     4828 1
    5000     4827     4831 1
    5001     4828     4829 1
    5002     4832     4833 1
    5003     4832     4840 1
    5004     4833     4834 1
    5005     4833     4841 1
    5006     4834     4835 1
    5007     4835     4836 1
    5008     4835     4839 1
    5009     4836     4837 1
    5010     4837     4838 1
    5011     4838     4839 1
    5012     4839     4840 1
    5013     4840     4974 1
    5014     4842     4843 1
    5015     4842     4883 1
    5016     4842     4884 1
    5017     4842     4885 1
    5018     4843     4844 1
    5019     4843     4886 1
    5020     4843     4887 1
    5021     4844     4845 1
    5022     4844     4888 1
    5023     4844     4889 1
    5024     4845     4846 1
    5025     4845     4890 1
    5026     4845     4891 1
    5027     4846     4847 1
    5028     4846     4892 1
    5029     4846     4893 1
    5030     4847     4848 1
    5031     4847     4894 1
    5032     4847     4895 1
    5033     4848     4849 1
    5034     4848     4896 1
    5035     4848     4897 1
    5036     4849     4850 1
    5037     4849     4898 1
    5038     4849     4899 1
    5039     4850     4851 1
    5040     4850     4900 1
    5041     4850     4901 1
    5042     4851     4852 1
    5043     4851     4902 1
    5044     4851     4903 1
    5045     4852     4853 1
    5046     4852     4861 1
    5047     4852     4904 1
    5048     4853     4854 1
    5049     4853     4905 1
    5050     4853     4906 1
    5051     4854     4855 1
    5052     4854     4907 1
    5053     4854     4908 1
    5054     4855     4856 1
    5055     4855     4909 1
    5056     4855     4910 1
    5057     4856     4857 1
    5058     4856     4911 1
    5059     4856     4912 1
    5060     4857     4858 1
    5061     4857     4913 1
    5062     4857     4914 1
    5063     4858     4859 1
    5064     4858     4915 1
    5065     4858     4916 1
    5066     4859     4860 1
    5067     4859     4917 1
    5068     4859     4918 1
    5069     4860     4919 1
    5070     4860     4920 1
    5071     4860     4921 1
    5072     4861     4862 1
    5073     4861     4922 1
    5074     4861     4923 1
    5075     4862     4863 1
    5076     4863     4864 1
    5077     4863     4924 1
    5078     4863     4925 1
    5079     4864     4865 1
    5080     4864     4873 1
    5081     4864     4926 1
    5082     4865     4866 1
    5083     4865     4927 1
    5084     4865     4928 1
    5085     4866     4867 1
    5086     4866     4929 1
    5087     4866     4930 1
    5088     4867     4868 1
    5089     4867     4931 1
    5090     4867     4932 1
    5091     4868     4869 1
    5092     4868     4933 1
    5093     4868     4934 1
    5094     4869     4870 1
    5095     4869     4935 1
    5096     4869     4936 1
    5097     4870     4871 1
    5098     4870     4937 1
    5099     4870     4938 1
    5100     4871     4872 1
    5101     4871     4939 1
    5102     4871     4940 1
    5103     4872     4941 1
    5104     4872     4942 1
    5105     4872     4943 1
    5106     4873     4874 1
    5107     4873     4944 1
    5108     4873     4945 1
    5109     4874     4875 1
    5110     4874     4946 1
    5111     4874     4947 1
    5112     4875     4876 1
    5113     4875     4948 1
    5114     4875     4949 1
    5115     4876     4877 1
    5116     4876     4950 1
    5117     4876     4951 1
    5118     4877     4878 1
    5119     4877     4952 1
    5120     4877     4953 1
    5121     4878     4879 1
    5122     4878     4954 1
    5123     4878     4955 1
    5124     4879     4880 1
    5125     4879     4956 1
    5126     4879     4957 1
    5127     4880     4881 1
    5128     4880     4958 1
    5129     4880     4959 1
    5130     4881     4882 1
    5131     4881     4960 1
    5132     4881     4961 1
    5133     4882     4962 1
    5134     4882     4963 1
    5135     4882     4964 1
    5136     4965     4966 1
    5137     4965     4972 1
    5138     4965     5008 1
    5139     4966     4967 1
    5140     4966     4970 1
    5141     4967     4968 1
    5142     4967     4971 1
    5143     4968     4969 1
    5144     4969     4970 1
    5145     4969     4980 1
    5146     4970     4976 1
    5147     4971     4972 1
    5148     4971     4975 1
    5149     4972     4973 1
    5150     4973     4974 1
    5151     4973     4977 1
    5152     4974     4975 1
    5153     4978     4979 1
    5154     4978     4986 1
    5155     4979     4980 1
    5156     4979     4987 1
    5157     4980     4981 1
    5158     4981     4982 1
    5159     4981     4985 1
    5160     4982     4983 1
    5161     4983     4984 1
    5162     4984     4985 1
    5163     4985     4986 1
    5164     4986     5120 1
    5165     4988     4989 1
    5166     4988     5029 1
    5167     4988     5030 1
    5168     4988     5031 1
    5169     4989     4990 1
    5170     4989     5032 1
    5171     4989     5033 1
    5172     4990     4991 1
    5173     4990     5034 1
    5174     4990     5035 1
    5175     4991     4992 1
    5176     4991     5036 1
    5177     4991     5037 1
    5178     4992     4993 1
    5179     4992     5038 1
    5180     4992     5039 1
    5181     4993     4994 1
    5182     4993     5040 1
    5183     4993     5041 1
    5184     4994     4995 1
    5185     4994     5042 1
    5186     4994     5043 1
    5187     4995     4996 1
    5188     4995     5044 1
    5189     4995     5045 1
    5190     4996     4997 1
    5191     4996     5046 1
    5192     4996     5047 1
    5193     4997     4998 1
    5194     4997     5048 1
    5195     4997     5049 1
    5196     4998     4999 1
    5197     4998     5007 1
    5198     4998     5050 1
    5199     4999     5000 1
    5200     4999     5051 1
    5201     4999     5052 1
    5202     5000     5001 1
    5203     5000     5053 1
    5204     5000     5054 1
    5205     5001     5002 1
    5206     5001     5055 1
    5207     5001     5056 1
    5208     5002     5003 1
    5209     5002     5057 1
    5210     5002     5058 1
    5211     5003     5004 1
    5212     5003     5059 1
    5213     5003     5060 1
    5214     5004     5005 1
    5215     5004     5061 1
    5216     5004     5062 1
    5217     5005     5006 1
    5218     5005     5063 1
    5219     5005     5064 1
    5220     5006     5065 1
    5221     5006     5066 1
    5222     5006     5067 1
    5223     5007     5008 1
    5224     5007     5068 1
    5225     5007     5069 1
    5226     5008     5009 1
    5227     5009     5010 1
    5228     5009     5070 1
    5229     5009     5071 1
    5230     5010     5011 1
    5231     5010     5019 1
    5232     5010     5072 1
    5233     5011     5012 1
    5234     5011     5073 1
    5235     5011     5074 1
    5236     5012     5013 1
    5237     5012     5075 1
    5238     5012     5076 1
    5239     5013     5014 1
    5240     5013     5077 1
    5241     5013     5078 1
    5242     5014     5015 1
    5243     5014     5079 1
    5244     5014     5080 1
    5245     5015     5016 1
    5246     5015     5081 1
    5247     5015     5082 1
    5248     5016     5017 1
    5249     5016     5083 1
    5250     5016     5084 1
    5251     5017     5018 1
    5252     5017     5085 1
    5253     5017     5086 1
    5254     5018     5087 1
    5255     5018     5088 1
    5256     5018     5089 1
    5257     5019     5020 1
    5258     5019     5090 1
    5259     5019     5091 1
    5260     5020     5021 1
    5261     5020     5092 1
    5262     5020     5093 1
    5263     5021     5022 1
    5264     5021     5094 1
    5265     5021     5095 1
    5266     5022     5023 1
    5267     5022     5096 1
    5268     5022     5097 1
    5269     5023     5024 1
    5270     5023     5098 1
    5271     5023     5099 1
    5272     5024     5025 1
    5273     5024     5100 1
    5274     5024     5101 1
    5275     5025     5026 1
    5276     5025     5102 1
    5277     5025     5103 1
    5278     5026     5027 1
    5279     5026     5104 1
    5280     5026     5105 1
    5281     5027     5028 1
    5282     5027     5106 1
    5283     5027     5107 1
    5284     5028     5108 1
    5285     5028     5109 1
    5286     5028     5110 1
    5287     5111     5112 1
    5288     5111     5118 1
    5289     5111     5154 1
    5290     5112     5113 1
    5291     5112     5116 1
    5292     5113     5114 1
    5293     5113     5117 1
    5294     5114     5115 1
    5295     5115     5116 1
    5296     5115     5126 1
    5297     5116     5122 1
    5298     5117     5118 1
    5299     5117     5121 1
    5300     5118     5119 1
    5301     5119     5120 1
    5302     5119     5123 1
    5303     5120     5121 1
    5304     5124     5125 1
    5305     5124     5132 1
    5306     5125     5126 1
    5307     5125     5133 1
    5308     5126     5127 1
    5309     5127     5128 1
    5310     5127     5131 1
    5311     5128     5129 1
    5312     5129     5130 1
    5313     5130     5131 1
    5314     5131     5132 1
    5315     5132     5266 1
    5316     5134     5135 1
    5317     5134     5175 1
    5318     5134     5176 1
    5319     5134     5177 1
    5320     5135     5136 1
    5321     5135     5178 1
    5322     5135     5179 1
    5323     5136     5137 1
    5324     5136     5180 1
    5325     5136     5181 1
    5326     5137     5138 1
    5327     5137     5182 1
    5328     5137     5183 1
    5329     5138     5139 1
    5330     5138     5184 1
    5331     5138     5185 1
    5332     5139     5140 1
    5333     5139     5186 1
    5334     5139     5187 1
    5335     5140     5141 1
    5336     5140     5188 1
    5337     5140     5189 1
    5338     5141     5142 1
    5339     5141     5190 1
    5340     5141     5191 1
    5341     5142     5143 1
    5342     5142     5192 1
    5343     5142     5193 1
    5344     5143     5144 1
    5345     5143     5194 1
    5346     5143     5195 1
    5347     5144     5145 1
    5348     5144     5153 1
    5349     5144     5196 1
    5350     5145     5146 1
    5351     5145     5197 1
    5352     5145     5198 1
    5353     5146     5147 1
    5354     5146     5199 1
    5355     5146     5200 1
    5356     5147     5148 1
    5357     5147     5201 1
    5358     5147     5202 1
    5359     5148     5149 1
    5360     5148     5203 1
    5361     5148     5204 1
    5362     5149     5150 1
    5363     5149     5205 1
    5364     5149     5206 1
    5365     5150     5151 1
    5366     5150     5207 1
    5367     5150     5208 1
    5368     5151     5152 1
    5369     5151     5209 1
    5370     5151     5210 1
    5371     5152     5211 1
    5372     5152     5212 1
    5373     5152     5213 1
    5374     5153     5154 1
    5375     5153     5214 1
    5376     5153     5215 1
    5377     5154     5155 1
    5378     5155     5156 1
    5379     5155     5216 1
    5380     5155     5217 1
    5381     5156     5157 1
    5382     5156     5165 1
    5383     5156     5218 1
    5384     5157     5158 1
    5385     5157     5219 1
    5386     5157     5220 1
    5387     5158     5159 1
    5388     5158     5221 1
    5389     5158     5222 1
    5390     5159     5160 1
    5391     5159     5223 1
    5392     5159     5224 1
    5393     5160     5161 1
    5394     5160     5225 1
    5395     5160     5226 1
    5396     5161     5162 1
    5397     5161     5227 1
    5398     5161     5228 1
    5399     5162     5163 1
    5400     5162     5229 1
    5401     5162     5230 1
    5402     5163     5164 1
    5403     5163     5231 1
    5404     5163     5232 1
    5405     5164     5233 1
    5406     5164     5234 1
    5407     5164     5235 1
    5408     5165     5166 1
    5409     5165     5236 1
    5410     5165     5237 1
    5411     5166     5167 1
    5412     5166     5238 1
    5413     5166     5239 1
    5414     5167     5168 1
    5415     5167     5240 1
    5416     5167     5241 1
    5417     5168     5169 1
    5418     5168     5242 1
    5419     5168     5243 1
    5420     5169     5170 1
    5421     5169     5244 1
    5422     5169     5245 1
    5423     5170     5171 1
    5424     5170     5246 1
    5425     5170     5247 1
    5426     5171     5172 1
    5427     5171     5248 1
    5428     5171     5249 1
    5429     5172     5173 1
    5430     5172     5250 1
    5431     5172     5251 1
    5432     5173     5174 1
    5433     5173     5252 1
    5434     5173     5253 1
    5435     5174     5254 1
    5436     5174     5255 1
    5437     5174     5256 1
    5438     5257     5258 1
    5439     5257     5264 1
    5440     5257     5300 1
    5441     5258     5259 1
    5442     5258     5262 1
    5443     5259     5260 1
    5444     5259     5263 1
    5445     5260     5261 1
    5446     5261     5262 1
    5447     5261     5272 1
    5448     5262     5268 1
    5449     5263     5264 1
    5450     5263     5267 1
    5451     5264     5265 1
    5452     5265     5266 1
    5453     5265     5269 1
    5454     5266     5267 1
    5455     5270     5271 1
    5456     5270     5278 1
    5457     5271     5272 1
    5458     5271     5279 1
    5459     5272     5273 1
    5460     5273     5274 1
    5461     5273     5277 1
    5462     5274     5275 1
    5463     5275     5276 1
    5464     5276     5277 1
    5465     5277     5278 1
    5466     5278     5412 1
    5467     5280     5281 1
    5468     5280     5321 1
    5469     5280     5322 1
    5470     5280     5323 1
    5471     5281     5282 1
    5472     5281     5324 1
    5473     5281     5325 1
    5474     5282     5283 1
    5475     5282     5326 1
    5476     5282     5327 1
    5477     5283     5284 1
    5478     5283     5328 1
    5479     5283     5329 1
    5480     5284     5285 1
    5481     5284     5330 1
    5482     5284     5331 1
    5483     5285     5286 1
    5484     5285     5332 1
    5485     5285     5333 1
    5486     5286     5287 1
    5487     5286     5334 1
    5488     5286     5335 1
    5489     5287     5288 1
    5490     5287     5336 1
    5491     5287     5337 1
    5492     5288     5289 1
    5493     5288     5338 1
    5494     5288     5339 1
    5495     5289     5290 1
    5496     5289     5340 1
    5497     5289     5341 1
    5498     5290     5291 1
    5499     5290     5299 1
    5500     5290     5342 1
    5501     5291     5292 1
    5502     5291     5343 1
    5503     5291     5344 1
    5504     5292     5293 1
    5505     5292     5345 1
    5506     5292     5346 1
    5507     5293     5294 1
    5508     5293     5347 1
    5509     5293     5348 1
    5510     5294     5295 1
    5511     5294     5349 1
    5512     5294     5350 1
    5513     5295     5296 1
    5514     5295     5351 1
    5515     5295     5352 1
    5516     5296     5297 1
    5517     5296     5353 1
    5518     5296     5354 1
    5519     5297     5298 1
    5520     5297     5355 1
    5521     5297     5356 1
    5522     5298     5357 1
    5523     5298     5358 1
    5524     5298     5359 1
    5525     5299     5300 1
    5526     5299     5360 1
    5527     5299     5361 1
    5528     5300     5301 1
    5529     5301     5302 1
    5530     5301     5362 1
    5531     5301     5363 1
    5532     5302     5303 1
    5533     5302     5311 1
    5534     5302     5364 1
    5535     5303     5304 1
    5536     5303     5365 1
    5537     5303     5366 1
    5538     5304     5305 1
    5539     5304     5367 1
    5540     5304     5368 1
    5541     5305     5306 1
    5542     5305     5369 1
    5543     5305     5370 1
    5544     5306     5307 1
    5545     5306     5371 1
    5546     5306     5372 1
    5547     5307     5308 1
    5548     5307     5373 1
    5549     5307     5374 1
    5550     5308     5309 1
    5551     5308     5375 1
    5552     5308     5376 1
    5553     5309     5310 1
    5554     5309     5377 1
    5555     5309     5378 1
    5556     5310     5379 1
    5557     5310     5380 1
    5558     5310     5381 1
    5559     5311     5312 1
    5560     5311     5382 1
    5561     5311     5383 1
    5562     5312     5313 1
    5563     5312     5384 1
    5564     5312     5385 1
    5565     5313     5314 1
    5566     5313     5386 1
    5567     5313     5387 1
    5568     5314     5315 1
    5569     5314     5388 1
    5570     5314     5389 1
    5571     5315     5316 1
    5572     5315     5390 1
    5573     5315     5391 1
    5574     5316     5317 1
    5575     5316     5392 1
    5576     5316     5393 1
    5577     5317     5318 1
    5578     5317     5394 1
    5579     5317     5395 1
    5580     5318     5319 1
    5581     5318     5396 1
    5582     5318     5397 1
    5583     5319     5320 1
    5584     5319     5398 1
    5585     5319     5399 1
    5586     5320     5400 1
    5587     5320     5401 1
    5588     5320     5402 1
    5589     5403     5404 1
    5590     5403     5410 1
    5591     5403     5446 1
    5592     5404     5405 1
    5593     5404     5408 1
    5594     5405     5406 1
    5595     5405     5409 1
    5596     5406     5407 1
    5597     5407     5408 1
    5598     5407     5418 1
    5599     5408     5414 1
    5600     5409     5410 1
    5601     5409     5413 1
    5602     5410     5411 1
    5603     5411     5412 1
    5604     5411     5415 1
    5605     5412     5413 1
    5606     5416     5417 1
    5607     5416     5424 1
    5608     5417     5418 1
    5609     5417     5425 1
    5610     5418     5419 1
    5611     5419     5420 1
    5612     5419     5423 1
    5613     5420     5421 1
    5614     5421     5422 1
    5615     5422     5423 1
    5616     5423     5424 1
    5617     5424     5558 1
    5618     5426     5427 1
    5619     5426     5467 1
    5620     5426     5468 1
    5621     5426     5469 1
    5622     5427     5428 1
    5623     5427     5470 1
    5624     5427     5471 1
    5625     5428     5429 1
    5626     5428     5472 1
    5627     5428     5473 1
    5628     5429     5430 1
    5629     5429     5474 1
    5630     5429     5475 1
    5631     5430     5431 1
    5632     5430     5476 1
    5633     5430     5477 1
    5634     5431     5432 1
    5635     5431     5478 1
    5636     5431     5479 1
    5637     5432     5433 1
    5638     5432     5480 1
    5639     5432     5481 1
    5640     5433     5434 1
    5641     5433     5482 1
    5642     5433     5483 1
    5643     5434     5435 1
    5644     5434     5484 1
    5645     5434     5485 1
    5646     5435     5436 1
    5647     5435     5486 1
    5648     5435     5487 1
    5649     5436     5437 1
    5650     5436     5445 1
    5651     5436     5488 1
    5652     5437     5438 1
    5653     5437     5489 1
    5654     5437     5490 1
    5655     5438     5439 1
    5656     5438     5491 1
    5657     5438     5492 1
    5658     5439     5440 1
    5659     5439     5493 1
    5660     5439     5494 1
    5661     5440     5441 1
    5662     5440     5495 1
    5663     5440     5496 1
    5664     5441     5442 1
    5665     5441     5497 1
    5666     5441     5498 1
    5667     5442     5443 1
    5668     5442     5499 1
    5669     5442     5500 1
    5670     5443     5444 1
    5671     5443     5501 1
    5672     5443     5502 1
    5673     5444     5503 1
    5674     5444     5504 1
    5675     5444     5505 1
    5676     5445     5446 1
    5677     5445     5506 1
    5678     5445     5507 1
    5679     5446     5447 1
    5680     5447     5448 1
    5681     5447     5508 1
    5682     5447     5509 1
    5683     5448     5449 1
    5684     5448     5457 1
    5685     5448     5510 1
    5686     5449     5450 1
    5687     5449     5511 1
    5688     5449     5512 1
    5689     5450     5451 1
    5690     5450     5513 1
    5691     5450     5514 1
    5692     5451     5452 1
    5693     5451     5515 1
    5694     5451     5516 1
    5695     5452     5453 1
    5696     5452     5517 1
    5697     5452     5518 1
    5698     5453     5454 1
    5699     5453     5519 1
    5700     5453     5520 1
    5701     5454     5455 1
    5702     5454     5521 1
    5703     5454     5522 1
    5704     5455     5456 1
    5705     5455     5523 1
    5706     5455     5524 1
    5707     5456     5525 1
    5708     5456     5526 1
    5709     5456     5527 1
    5710     5457     5458 1
    5711     5457     5528 1
    5712     5457     5529 1
    5713     5458     5459 1
    5714     5458     5530 1
    5715     5458     5531 1
    5716     5459     5460 1
    5717     5459     5532 1
    5718     5459     5533 1
    5719     5460     5461 1
    5720     5460     5534 1
    5721     5460     5535 1
    5722     5461     5462 1
    5723     5461     5536 1
    5724     5461     5537 1
    5725     5462     5463 1
    5726     5462     5538 1
    5727     5462     5539 1
    5728     5463     5464 1
    5729     5463     5540 1
    5730     5463     5541 1
    5731     5464     5465 1
    5732     5464     5542 1
    5733     5464     5543 1
    5734     5465     5466 1
    5735     5465     5544 1
    5736     5465     5545 1
    5737     5466     5546 1
    5738     5466     5547 1
    5739     5466     5548 1
    5740     5549     5550 1
    5741     5549     5556 1
    5742     5549     5592 1
    5743     5550     5551 1
    5744     5550     5554 1
    5745     5551     5552 1
    5746     5551     5555 1
    5747     5552     5553 1
    5748     5553     5554 1
    5749     5553     5564 1
    5750     5554     5560 1
    5751     5555     5556 1
    5752     5555     5559 1
    5753     5556     5557 1
    5754     5557     5558 1
    5755     5557     5561 1
    5756     5558     5559 1
    5757     5562     5563 1
    5758     5562     5570 1
    5759     5563     5564 1
    5760     5563     5571 1
    5761     5564     5565 1
    5762     5565     5566 1
    5763     5565     5569 1
    5764     5566     5567 1
    5765     5567     5568 1
    5766     5568     5569 1
    5767     5569     5570 1
    5768     5570     5704 1
    5769     5572     5573 1
    5770     5572     5613 1
    5771     5572     5614 1
    5772     5572     5615 1
    5773     5573     5574 1
    5774     5573     5616 1
    5775     5573     5617 1
    5776     5574     5575 1
    5777     5574     5618 1
    5778     5574     5619 1
    5779     5575     5576 1
    5780     5575     5620 1
    5781     5575     5621 1
    5782     5576     5577 1
    5783     5576     5622 1
    5784     5576     5623 1
    5785     5577     5578 1
    5786     5577     5624 1
    5787     5577     5625 1
    5788     5578     5579 1
    5789     5578     5626 1
    5790     5578     5627 1
    5791     5579     5580 1
    5792     5579     5628 1
    5793     5579     5629 1
    5794     5580     5581 1
    5795     5580     5630 1
    5796     5580     5631 1
    5797     5581     5582 1
    5798     5581     5632 1
    5799     5581     5633 1
    5800     5582     5583 1
    5801     5582     5591 1
    5802     5582     5634 1
    5803     5583     5584 1
    5804     5583     5635 1
    5805     5583     5636 1
    5806     5584     5585 1
    5807     5584     5637 1
    5808     5584     5638 1
    5809     5585     5586 1
    5810     5585     5639 1
    5811     5585     5640 1
    5812     5586     5587 1
    5813     5586     5641 1
    5814     5586     5642 1
    5815     5587     5588 1
    5816     5587     5643 1
    5817     5587     5644 1
    5818     5588     5589 1
    5819     5588     5645 1
    5820     5588     5646 1
    5821     5589     5590 1
    5822     5589     5647 1
    5823     5589     5648 1
    5824     5590     5649 1
    5825     5590     5650 1
    5826     5590     5651 1
    5827     5591     5592 1
    5828     5591     5652 1
    5829     5591     5653 1
    5830     5592     5593 1
    5831     5593     5594 1
    5832     5593     5654 1
    5833     5593     5655 1
    5834     5594     5595 1
    5835     5594     5603 1
    5836     5594     5656 1
    5837     5595     5596 1
    5838     5595     5657 1
    5839     5595     5658 1
    5840     5596     5597 1
    5841     5596     5659 1
    5842     5596     5660 1
    5843     5597     5598 1
    5844     5597     5661 1
    5845     5597     5662 1
    5846     5598     5599 1
    5847     5598     5663 1
    5848     5598     5664 1
    5849     5599     5600 1
    5850     5599     5665 1
    5851     5599     5666 1
    5852     5600     5601 1
    5853     5600     5667 1
    5854     5600     5668 1
    5855     5601     5602 1
    5856     5601     5669 1
    5857     5601     5670 1
    5858     5602     5671 1
    5859     5602     5672 1
    5860     5602     5673 1
    5861     5603     5604 1
    5862     5603     5674 1
    5863     5603     5675 1
    5864     5604     5605 1
    5865     5604     5676 1
    5866     5604     5677 1
    5867     5605     5606 1
    5868     5605     5678 1
    5869     5605     5679 1
    5870     5606     5607 1
    5871     5606     5680 1
    5872     5606     5681 1
    5873     5607     5608 1
    5874     5607     5682 1
    5875     5607     5683 1
    5876     5608     5609 1
    5877     5608     5684 1
    5878     5608     5685 1
    5879     5609     5610 1
    5880     5609     5686 1
    5881     5609     5687 1
    5882     5610     5611 1
    5883     5610     5688 1
    5884     5610     5689 1
    5885     5611     5612 1
    5886     5611     5690 1
    5887     5611     5691 1
    5888     5612     5692 1
    5889     5612     5693 1
    5890     5612     5694 1
    5891     5695     5696 1
    5892     5695     5702 1
    5893     5695     5738 1
    5894     5696     5697 1
    5895     5696     5700 1
    5896     5697     5698 1
    5897     5697     5701 1
    5898     5698     5699 1
    5899     5699     5700 1
    5900     5699     5710 1
    5901     5700     5706 1
    5902     5701     5702 1
    5903     5701     5705 1
    5904     5702     5703 1
    5905     5703     5704 1
    5906     5703     5707 1
    5907     5704     5705 1
    5908     5708     5709 1
    5909     5708     5716 1
    5910     5709     5710 1
    5911     5709     5717 1
    5912     5710     5711 1
    5913     5711     5712 1
    5914     5711     5715 1
    5915     5712     5713 1
    5916     5713     5714 1
    5917     5714     5715 1
    5918     5715     5716 1
    5919     5716     5850 1
    5920     5718     5719 1
    5921     5718     5759 1
    5922     5718     5760 1
    5923     5718     5761 1
    5924     5719     5720 1
    5925     5719     5762 1
    5926     5719     5763 1
    5927     5720     5721 1
    5928     5720     5764 1
    5929     5720     5765 1
    5930     5721     5722 1
    5931     5721     5766 1
    5932     5721     5767 1
    5933     5722     5723 1
    5934     5722     5768 1
    5935     5722     5769 1
    5936     5723     5724 1
    5937     5723     5770 1
    5938     5723     5771 1
    5939     5724     5725 1
    5940     5724     5772 1
    5941     5724     5773 1
    5942     5725     5726 1
    5943     5725     5774 1
    5944     5725     5775 1
    5945     5726     5727 1
    5946     5726     5776 1
    5947     5726     5777 1
    5948     5727     5728 1
    5949     5727     5778 1
    5950     5727     5779 1
    5951     5728     5729 1
    5952     5728     5737 1
    5953     5728     5780 1
    5954     5729     5730 1
    5955     5729     5781 1
    5956     5729     5782 1
    5957     5730     5731 1
    5958     5730     5783 1
    5959     5730     5784 1
    5960     5731     5732 1
    5961     5731     5785 1
    5962     5731     5786 1
    5963     5732     5733 1
    5964     5732     5787 1
    5965     5732     5788 1
    5966     5733     5734 1
    5967     5733     5789 1
    5968     5733     5790 1
    5969     5734     5735 1
    5970     5734     5791 1
    5971     5734     5792 1
    5972     5735     5736 1
    5973     5735     5793 1
    5974     5735     5794 1
    5975     5736     5795 1
    5976     5736     5796 1
    5977     5736     5797 1
    5978     5737     5738 1
    5979     5737     5798 1
    5980     5737     5799 1
    5981     5738     5739 1
    5982     5739     5740 1
    5983     5739     5800 1
    5984     5739     5801 1
    5985     5740     5741 1
    5986     5740     5749 1
    5987     5740     5802 1
    5988     5741     5742 1
    5989     5741     5803 1
    5990     5741     5804 1
    5991     5742     5743 1
    5992     5742     5805 1
    5993     5742     5806 1
    5994     5743     5744 1
    5995     5743     5807 1
    5996     5743     5808 1
    5997     5744     5745 1
    5998     5744     5809 1
    5999     5744     5810 1
    6000     5745     5746 1
    6001     5745     5811 1
    6002     5745     5812 1
    6003     5746     5747 1
    6004     5746     5813 1
    6005     5746     5814 1
    6006     5747     5748 1
    6007     5747     5815 1
    6008     5747     5816 1
    6009     5748     5817 1
    6010     5748     5818 1
    6011     5748     5819 1
    6012     5749     5750 1
    6013     5749     5820 1
    6014     5749     5821 1
    6015     5750     5751 1
    6016     5750     5822 1
    6017     5750     5823 1
    6018     5751     5752 1
    6019     5751     5824 1
    6020     5751     5825 1
    6021     5752     5753 1
    6022     5752     5826 1
    6023     5752     5827 1
    6024     5753     5754 1
    6025     5753     5828 1
    6026     5753     5829 1
    6027     5754     5755 1
    6028     5754     5830 1
    6029     5754     5831 1
    6030     5755     5756 1
    6031     5755     5832 1
    6032     5755     5833 1
    6033     5756     5757 1
    6034     5756     5834 1
    6035     5756     5835 1
    6036     5757     5758 1
    6037     5757     5836 1
    6038     5757     5837 1
    6039     5758     5838 1
    6040     5758     5839 1
    6041     5758     5840 1
    6042     5841     5842 1
    6043     5841     5848 1
    6044     5841     5884 1
    6045     5842     5843 1
    6046     5842     5846 1
    6047     5843     5844 1
    6048     5843     5847 1
    6049     5844     5845 1
    6050     5845     5846 1
    6051     5845     5856 1
    6052     5846     5852 1
    6053     5847     5848 1
    6054     5847     5851 1
    6055     5848     5849 1
    6056     5849     5850 1
    6057     5849     5853 1
    6058     5850     5851 1
    6059     5854     5855 1
    6060     5854     5862 1
    6061     5855     5856 1
    6062     5855     5863 1
    6063     5856     5857 1
    6064     5857     5858 1
    6065     5857     5861 1
    6066     5858     5859 1
    6067     5859     5860 1
    6068     5860     5861 1
    6069     5861     5862 1
    6070     5862     5996 1
    6071     5864     5865 1
    6072     5864     5905 1
    6073     5864     5906 1
    6074     5864     5907 1
    6075     5865     5866 1
    6076     5865     5908 1
    6077     5865     5909 1
    6078     5866     5867 1
    6079     5866     5910 1
    6080     5866     5911 1
    6081     5867     5868 1
    6082     5867     5912 1
    6083     5867     5913 1
    6084     5868     5869 1
    6085     5868     5914 1
    6086     5868     5915 1
    6087     5869     5870 1
    6088     5869     5916 1
    6089     5869     5917 1
    6090     5870     5871 1
    6091     5870     5918 1
    6092     5870     5919 1
    6093     5871     5872 1
    6094     5871     5920 1
    6095     5871     5921 1
    6096     5872     5873 1
    6097     5872     5922 1
    6098     5872     5923 1
    6099     5873     5874 1
    6100     5873     5924 1
    6101     5873     5925 1
    6102     5874     5875 1
    6103     5874     5883 1
    6104     5874     5926 1
    6105     5875     5876 1
    6106     5875     5927 1
    6107     5875     5928 1
    6108     5876     5877 1
    6109     5876     5929 1
    6110     5876     5930 1
    6111     5877     5878 1
    6112     5877     5931 1
    6113     5877     5932 1
    6114     5878     5879 1
    6115     5878     5933 1
    6116     5878     5934 1
    6117     5879     5880 1
    6118     5879     5935 1
    6119     5879     5936 1
    6120     5880     5881 1
    6121     5880     5937 1
    6122     5880     5938 1
    6123     5881     5882 1
    6124     5881     5939 1
    6125     5881     5940 1
    6126     5882     5941 1
    6127     5882     5942 1
    6128     5882     5943 1
    6129     5883     5884 1
    6130     5883     5944 1
    6131     5883     5945 1
    6132     5884     5885 1
    6133     5885     5886 1
    6134     5885     5946 1
    6135     5885     5947 1
    6136     5886     5887 1
    6137     5886     5895 1
    6138     5886     5948 1
    6139     5887     5888 1
    6140     5887     5949 1
    6141     5887     5950 1
    6142     5888     5889 1
    6143     5888     5951 1
    6144     5888     5952 1
    6145     5889     5890 1
    6146     5889     5953 1
    6147     5889     5954 1
    6148     5890     5891 1
    6149     5890     5955 1
    6150     5890     5956 1
    6151     5891     5892 1
    6152     5891     5957 1
    6153     5891     5958 1
    6154     5892     5893 1
    6155     5892     5959 1
    6156     5892     5960 1
    6157     5893     5894 1
    6158     5893     5961 1
    6159     5893     5962 1
    6160     5894     5963 1
    6161     5894     5964 1
    6162     5894     5965 1
    6163     5895     5896 1
    6164     5895     5966 1
    6165     5895     5967 1
    6166     5896     5897 1
    6167     5896     5968 1
    6168     5896     5969 1
    6169     5897     5898 1
    6170     5897     5970 1
    6171     5897     5971 1
    6172     5898     5899 1
    6173     5898     5972 1
    6174     5898     5973 1
    6175     5899     5900 1
    6176     5899     5974 1
    6177     5899     5975 1
    6178     5900     5901 1
    6179     5900     5976 1
    6180     5900     5977 1
    6181     5901     5902 1
    6182     5901     5978 1
    6183     5901     5979 1
    6184     5902     5903 1
    6185     5902     5980 1
    6186     5902     5981 1
    6187     5903     5904 1
    6188     5903     5982 1
    6189     5903     5983 1
    6190     5904     5984 1
    6191     5904     5985 1
    6192     5904     5986 1
    6193     5987     5988 1
    6194     5987     5994 1
    6195     5987     6030 1
    6196     5988     5989 1
    6197     5988     5992 1
    6198     5989     5990 1
    6199     5989     5993 1
    6200     5990     5991 1
    6201     5991     5992 1
    6202     5991     6002 1
    6203     5992     5998 1
    6204     5993     5994 1
    6205     5993     5997 1
    6206     5994     5995 1
    6207     5995     5996 1
    6208     5995     5999 1
    6209     5996     5997 1
    6210     6000     6001 1
    6211     6000     6008 1
    6212     6001     6002 1
    6213     6001     6009 1
    6214     6002     6003 1
    6215     6003     6004 1
    6216     6003     6007 1
    6217     6004     6005 1
    6218     6005     6006 1
    6219     6006     6007 1
    6220     6007     6008 1
    6221     6008     6142 1
    6222     6010     6011 1
    6223     6010     6051 1
    6224     6010     6052 1
    6225     6010     6053 1
    6226     6011     6012 1
    6227     6011     6054 1
    6228     6011     6055 1
    6229     6012     6013 1
    6230     6012     6056 1
    6231     6012     6057 1
    6232     6013     6014 1
    6233     6013     6058 1
    6234     6013     6059 1
    6235     6014     6015 1
    6236     6014     6060 1
    6237     6014     6061 1
    6238     6015     6016 1
    6239     6015     6062 1
    6240     6015     6063 1
    6241     6016     6017 1
    6242     6016     6064 1
    6243     6016     6065 1
    6244     6017     6018 1
    6245     6017     6066 1
    6246     6017     6067 1
    6247     6018     6019 1
    6248     6018     6068 1
    6249     6018     6069 1
    6250     6019     6020 1
    6251     6019     6070 1
    6252     6019     6071 1
    6253     6020     6021 1
    6254     6020     6029 1
    6255     6020     6072 1
    6256     6021     6022 1
    6257     6021     6073 1
    6258     6021     6074 1
    6259     6022     6023 1
    6260     6022     6075 1
    6261     6022     6076 1
    6262     6023     6024 1
    6263     6023     6077 1
    6264     6023     6078 1
    6265     6024     6025 1
    6266     6024     6079 1
    6267     6024     6080 1
    6268     6025     6026 1
    6269     6025     6081 1
    6270     6025     6082 1
    6271     6026     6027 1
    6272     6026     6083 1
    6273     6026     6084 1
    6274     6027     6028 1
    6275     6027     6085 1
    6276     6027     6086 1
    6277     6028     6087 1
    6278     6028     6088 1
    6279     6028     6089 1
    6280     6029     6030 1
    6281     6029     6090 1
    6282     6029     6091 1
    6283     6030     6031 1
    6284     6031     6032 1
    6285     6031     6092 1
    6286     6031     6093 1
    6287     6032     6033 1
    6288     6032     6041 1
    6289     6032     6094 1
    6290     6033     6034 1
    6291     6033     6095 1
    6292     6033     6096 1
    6293     6034     6035 1
    6294     6034     6097 1
    6295     6034     6098 1
    6296     6035     6036 1
    6297     6035     6099 1
    6298     6035     6100 1
    6299     6036     6037 1
    6300     6036     6101 1
    6301     6036     6102 1
    6302     6037     6038 1
    6303     6037     6103 1
    6304     6037     6104 1
    6305     6038     6039 1
    6306     6038     6105 1
    6307     6038     6106 1
    6308     6039     6040 1
    6309     6039     6107 1
    6310     6039     6108 1
    6311     6040     6109 1
    6312     6040     6110 1
    6313     6040     6111 1
    6314     6041     6042 1
    6315     6041     6112 1
    6316     6041     6113 1
    6317     6042     6043 1
    6318     6042     6114 1
    6319     6042     6115 1
    6320     6043     6044 1
    6321     6043     6116 1
    6322     6043     6117 1
    6323     6044     6045 1
    6324     6044     6118 1
    6325     6044     6119 1
    6326     6045     6046 1
    6327     6045     6120 1
    6328     6045     6121 1
    6329     6046     6047 1
    6330     6046     6122 1
    6331     6046     6123 1
    6332     6047     6048 1
    6333     6047     6124 1
    6334     6047     6125 1
    6335     6048     6049 1
    6336     6048     6126 1
    6337     6048     6127 1
    6338     6049     6050 1
    6339     6049     6128 1
    6340     6049     6129 1
    6341     6050     6130 1
    6342     6050     6131 1
    6343     6050     6132 1
    6344     6133     6134 1
    6345     6133     6140 1
    6346     6133     6176 1
    6347     6134     6135 1
    6348     6134     6138 1
    6349     6135     6136 1
    6350     6135     6139 1
    6351     6136     6137 1
    6352     6137     6138 1
    6353     6137     6148 1
    6354     6138     6144 1
    6355     6139     6140 1
    6356     6139     6143 1
    6357     6140     6141 1
    6358     6141     6142 1
    6359     6141     6145 1
    6360     6142     6143 1
    6361     6146     6147 1
    6362     6146     6154 1
    6363     6147     6148 1
    6364     6147     6155 1
    6365     6148     6149 1
    6366     6149     6150 1
    6367     6149     6153 1
    6368     6150     6151 1
    6369     6151     6152 1
    6370     6152     6153 1
    6371     6153     6154 1
    6372     6154     6288 1
    6373     6156     6157 1
    6374     6156     6197 1
    6375     6156     6198 1
    6376     6156     6199 1
    6377     6157     6158 1
    6378     6157     6200 1
    6379     6157     6201 1
    6380     6158     6159 1
    6381     6158     6202 1
    6382     6158     6203 1
    6383     6159     6160 1
    6384     6159     6204 1
    6385     6159     6205 1
    6386     6160     6161 1
    6387     6160     6206 1
    6388     6160     6207 1
    6389     6161     6162 1
    6390     6161     6208 1
    6391     6161     6209 1
    6392     6162     6163 1
    6393     6162     6210 1
    6394     6162     6211 1
    6395     6163     6164 1
    6396     6163     6212 1
    6397     6163     6213 1
    6398     6164     6165 1
    6399     6164     6214 1
    6400     6164     6215 1
    6401     6165     6166 1
    6402     6165     6216 1
    6403     6165     6217 1
    6404     6166     6167 1
    6405     6166     6175 1
    6406     6166     6218 1
    6407     6167     6168 1
    6408     6167     6219 1
    6409     6167     6220 1
    6410     6168     6169 1
    6411     6168     6221 1
    6412     6168     6222 1
    6413     6169     6170 1
    6414     6169     6223 1
    6415     6169     6224 1
    6416     6170     6171 1
    6417     6170     6225 1
    6418     6170     6226 1
    6419     6171     6172 1
    6420     6171     6227 1
    6421     6171     6228 1
    6422     6172     6173 1
    6423     6172     6229 1
    6424     6172     6230 1
    6425     6173     6174 1
    6426     6173     6231 1
    6427     6173     6232 1
    6428     6174     6233 1
    6429     6174     6234 1
    6430     6174     6235 1
    6431     6175     6176 1
    6432     6175     6236 1
    6433     6175     6237 1
    6434     6176     6177 1
    6435     6177     6178 1
    6436     6177     6238 1
    6437     6177     6239 1
    6438     6178     6179 1
    6439     6178     6187 1
    6440     6178     6240 1
    6441     6179     6180 1
    6442     6179     6241 1
    6443     6179     6242 1
    6444     6180     6181 1
    6445     6180     6243 1
    6446     6180     6244 1
    6447     6181     6182 1
    6448     6181     6245 1
    6449     6181     6246 1
    6450     6182     6183 1
    6451     6182     6247 1
    6452     6182     6248 1
    6453     6183     6184 1
    6454     6183     6249 1
    6455     6183     6250 1
    6456     6184     6185 1
    6457     6184     6251 1
    6458     6184     6252 1
    6459     6185     6186 1
    6460     6185     6253 1
    6461     6185     6254 1
    6462     6186     6255 1
    6463     6186     6256 1
    6464     6186     6257 1
    6465     6187     6188 1
    6466     6187     6258 1
    6467     6187     6259 1
    6468     6188     6189 1
    6469     6188     6260 1
    6470     6188     6261 1
    6471     6189     6190 1
    6472     6189     6262 1
    6473     6189     6263 1
    6474     6190     6191 1
    6475     6190     6264 1
    6476     6190     6265 1
    6477     6191     6192 1
    6478     6191     6266 1
    6479     6191     6267 1
    6480     6192     6193 1
    6481     6192     6268 1
    6482     6192     6269 1
    6483     6193     6194 1
    6484     6193     6270 1
    6485     6193     6271 1
    6486     6194     6195 1
    6487     6194     6272 1
    6488     6194     6273 1
    6489     6195     6196 1
    6490     6195     6274 1
    6491     6195     6275 1
    6492     6196     6276 1
    6493     6196     6277 1
    6494     6196     6278 1
    6495     6279     6280 1
    6496     6279     6286 1
    6497     6279     6322 1
    6498     6280     6281 1
    6499     6280     6284 1
    6500     6281     6282 1
    6501     6281     6285 1
    6502     6282     6283 1
    6503     6283     6284 1
    6504     6283     6294 1
    6505     6284     6290 1
    6506     6285     6286 1
    6507     6285     6289 1
    6508     6286     6287 1
    6509     6287     6288 1
    6510     6287     6291 1
    6511     6288     6289 1
    6512     6292     6293 1
    6513     6292     6300 1
    6514     6293     6294 1
    6515     6293     6301 1
    6516     6294     6295 1
    6517     6295     6296 1
    6518     6295     6299 1
    6519     6296     6297 1
    6520     6297     6298 1
    6521     6298     6299 1
    6522     6299     6300 1
    6523     6300     6434 1
    6524     6302     6303 1
    6525     6302     6343 1
    6526     6302     6344 1
    6527     6302     6345 1
    6528     6303     6304 1
    6529     6303     6346 1
    6530     6303     6347 1
    6531     6304     6305 1
    6532     6304     6348 1
    6533     6304     6349 1
    6534     6305     6306 1
    6535     6305     6350 1
    6536     6305     6351 1
    6537     6306     6307 1
    6538     6306     6352 1
    6539     6306     6353 1
    6540     6307     6308 1
    6541     6307     6354 1
    6542     6307     6355 1
    6543     6308     6309 1
    6544     6308     6356 1
    6545     6308     6357 1
    6546     6309     6310 1
    6547     6309     6358 1
    6548     6309     6359 1
    6549     6310     6311 1
    6550     6310     6360 1
    6551     6310     6361 1
    6552     6311     6312 1
    6553     6311     6362 1
    6554     6311     6363 1
    6555     6312     6313 1
    6556     6312     6321 1
    6557     6312     6364 1
    6558     6313     6314 1
    6559     6313     6365 1
    6560     6313     6366 1
    6561     6314     6315 1
    6562     6314     6367 1
    6563     6314     6368 1
    6564     6315     6316 1
    6565     6315     6369 1
    6566     6315     6370 1
    6567     6316     6317 1
    6568     6316     6371 1
    6569     6316     6372 1
    6570     6317     6318 1
    6571     6317     6373 1
    6572     6317     6374 1
    6573     6318     6319 1
    6574     6318     6375 1
    6575     6318     6376 1
    6576     6319     6320 1
    6577     6319     6377 1
    6578     6319     6378 1
    6579     6320     6379 1
    6580     6320     6380 1
    6581     6320     6381 1
    6582     6321     6322 1
    6583     6321     6382 1
    6584     6321     6383 1
    6585     6322     6323 1
    6586     6323     6324 1
    6587     6323     6384 1
    6588     6323     6385 1
    6589     6324     6325 1
    6590     6324     6333 1
    6591     6324     6386 1
    6592     6325     6326 1
    6593     6325     6387 1
    6594     6325     6388 1
    6595     6326     6327 1
    6596     6326     6389 1
    6597     6326     6390 1
    6598     6327     6328 1
    6599     6327     6391 1
    6600     6327     6392 1
    6601     6328     6329 1
    6602     6328     6393 1
    6603     6328     6394 1
    6604     6329     6330 1
    6605     6329     6395 1
    6606     6329     6396 1
    6607     6330     6331 1
    6608     6330     6397 1
    6609     6330     6398 1
    6610     6331     6332 1
    6611     6331     6399 1
    6612     6331     6400 1
    6613     6332     6401 1
    6614     6332     6402 1
    6615     6332     6403 1
    6616     6333     6334 1
    6617     6333     6404 1
    6618     6333     6405 1
    6619     6334     6335 1
    6620     6334     6406 1
    6621     6334     6407 1
    6622     6335     6336 1
    6623     6335     6408 1
    6624     6335     6409 1
    6625     6336     6337 1
    6626     6336     6410 1
    6627     6336     6411 1
    6628     6337     6338 1
    6629     6337     6412 1
    6630     6337     6413 1
    6631     6338     6339 1
    6632     6338     6414 1
    6633     6338     6415 1
    6634     6339     6340 1
    6635     6339     6416 1
    6636     6339     6417 1
    6637     6340     6341 1
    6638     6340     6418 1
    6639     6340     6419 1
    6640     6341     6342 1
    6641     6341     6420 1
    6642     6341     6421 1
    6643     6342     6422 1
    6644     6342     6423 1
    6645     6342     6424 1
    6646     6425     6426 1
    6647     6425     6432 1
    6648     6425     6468 1
    6649     6426     6427 1
    6650     6426     6430 1
    6651     6427     6428 1
    6652     6427     6431 1
    6653     6428     6429 1
    6654     6429     6430 1
    6655     6429     6440 1
    6656     6430     6436 1
    6657     6431     6432 1
    6658     6431     6435 1
    6659     6432     6433 1
    6660     6433     6434 1
    6661     6433     6437 1
    6662     6434     6435 1
    6663     6438     6439 1
    6664     6438     6446 1
    6665     6439     6440 1
    6666     6439     6447 1
    6667     6440     6441 1
    6668     6441     6442 1
    6669     6441     6445 1
    6670     6442     6443 1
    6671     6443     6444 1
    6672     6444     6445 1
    6673     6445     6446 1
    6674     6446     6580 1
    6675     6448     6449 1
    6676     6448     6489 1
    6677     6448     6490 1
    6678     6448     6491 1
    6679     6449     6450 1
    6680     6449     6492 1
    6681     6449     6493 1
    6682     6450     6451 1
    6683     6450     6494 1
    6684     6450     6495 1
    6685     6451     6452 1
    6686     6451     6496 1
    6687     6451     6497 1
    6688     6452     6453 1
    6689     6452     6498 1
    6690     6452     6499 1
    6691     6453     6454 1
    6692     6453     6500 1
    6693     6453     6501 1
    6694     6454     6455 1
    6695     6454     6502 1
    6696     6454     6503 1
    6697     6455     6456 1
    6698     6455     6504 1
    6699     6455     6505 1
    6700     6456     6457 1
    6701     6456     6506 1
    6702     6456     6507 1
    6703     6457     6458 1
    6704     6457     6508 1
    6705     6457     6509 1
    6706     6458     6459 1
    6707     6458     6467 1
    6708     6458     6510 1
    6709     6459     6460 1
    6710     6459     6511 1
    6711     6459     6512 1
    6712     6460     6461 1
    6713     6460     6513 1
    6714     6460     6514 1
    6715     6461     6462 1
    6716     6461     6515 1
    6717     6461     6516 1
    6718     6462     6463 1
    6719     6462     6517 1
    6720     6462     6518 1
    6721     6463     6464 1
    6722     6463     6519 1
    6723     6463     6520 1
    6724     6464     6465 1
    6725     6464     6521 1
    6726     6464     6522 1
    6727     6465     6466 1
    6728     6465     6523 1
    6729     6465     6524 1
    6730     6466     6525 1
    6731     6466     6526 1
    6732     6466     6527 1
    6733     6467     6468 1
    6734     6467     6528 1
    6735     6467     6529 1
    6736     6468     6469 1
    6737     6469     6470 1
    6738     6469     6530 1
    6739     6469     6531 1
    6740     6470     6471 1
    6741     6470     6479 1
    6742     6470     6532 1
    6743     6471     6472 1
    6744     6471     6533 1
    6745     6471     6534 1
    6746     6472     6473 1
    6747     6472     6535 1
    6748     6472     6536 1
    6749     6473     6474 1
    6750     6473     6537 1
    6751     6473     6538 1
    6752     6474     6475 1
    6753     6474     6539 1
    6754     6474     6540 1
    6755     6475     6476 1
    6756     6475     6541 1
    6757     6475     6542 1
    6758     6476     6477 1
    6759     6476     6543 1
    6760     6476     6544 1
    6761     6477     6478 1
    6762     6477     6545 1
    6763     6477     6546 1
    6764     6478     6547 1
    6765     6478     6548 1
    6766     6478     6549 1
    6767     6479     6480 1
    6768     6479     6550 1
    6769     6479     6551 1
    6770     6480     6481 1
    6771     6480     6552 1
    6772     6480     6553 1
    6773     6481     6482 1
    6774     6481     6554 1
    6775     6481     6555 1
    6776     6482     6483 1
    6777     6482     6556 1
    6778     6482     6557 1
    6779     6483     6484 1
    6780     6483     6558 1
    6781     6483     6559 1
    6782     6484     6485 1
    6783     6484     6560 1
    6784     6484     6561 1
    6785     6485     6486 1
    6786     6485     6562 1
    6787     6485     6563 1
    6788     6486     6487 1
    6789     6486     6564 1
    6790     6486     6565 1
    6791     6487     6488 1
    6792     6487     6566 1
    6793     6487     6567 1
    6794     6488     6568 1
    6795     6488     6569 1
    6796     6488     6570 1
    6797     6571     6572 1
    6798     6571     6578 1
    6799     6571     6614 1
    6800     6572     6573 1
    6801     6572     6576 1
    6802     6573     6574 1
    6803     6573     6577 1
    6804     6574     6575 1
    6805     6575     6576 1
    6806     6575     6586 1
    6807     6576     6582 1
    6808     6577     6578 1
    6809     6577     6581 1
    6810     6578     6579 1
    6811     6579     6580 1
    6812     6579     6583 1
    6813     6580     6581 1
    6814     6584     6585 1
    6815     6584     6592 1
    6816     6585     6586 1
    6817     6585     6593 1
    6818     6586     6587 1
    6819     6587     6588 1
    6820     6587     6591 1
    6821     6588     6589 1
    6822     6589     6590 1
    6823     6590     6591 1
    6824     6591     6592 1
    6825     6592     6726 1
    6826     6594     6595 1
    6827     6594     6635 1
    6828     6594     6636 1
    6829     6594     6637 1
    6830     6595     6596 1
    6831     6595     6638 1
    6832     6595     6639 1
    6833     6596     6597 1
    6834     6596     6640 1
    6835     6596     6641 1
    6836     6597     6598 1
    6837     6597     6642 1
    6838     6597     6643 1
    6839     6598     6599 1
    6840     6598     6644 1
    6841     6598     6645 1
    6842     6599     6600 1
    6843     6599     6646 1
    6844     6599     6647 1
    6845     6600     6601 1
    6846     6600     6648 1
    6847     6600     6649 1
    6848     6601     6602 1
    6849     6601     6650 1
    6850     6601     6651 1
    6851     6602     6603 1
    6852     6602     6652 1
    6853     6602     6653 1
    6854     6603     6604 1
    6855     6603     6654 1
    6856     6603     6655 1
    6857     6604     6605 1
    6858     6604     6613 1
    6859     6604     6656 1
    6860     6605     6606 1
    6861     6605     6657 1
    6862     6605     6658 1
    6863     6606     6607 1
    6864     6606     6659 1
    6865     6606     6660 1
    6866     6607     6608 1
    6867     6607     6661 1
    6868     6607     6662 1
    6869     6608     6609 1
    6870     6608     6663 1
    6871     6608     6664 1
    6872     6609     6610 1
    6873     6609     6665 1
    6874     6609     6666 1
    6875     6610     6611 1
    6876     6610     6667 1
    6877     6610     6668 1
    6878     6611     6612 1
    6879     6611     6669 1
    6880     6611     6670 1
    6881     6612     6671 1
    6882     6612     6672 1
    6883     6612     6673 1
    6884     6613     6614 1
    6885     6613     6674 1
    6886     6613     6675 1
    6887     6614     6615 1
    6888     6615     6616 1
    6889     6615     6676 1
    6890     6615     6677 1
    6891     6616     6617 1
    6892     6616     6625 1
    6893     6616     6678 1
    6894     6617     6618 1
    6895     6617     6679 1
    6896     6617     6680 1
    6897     6618     6619 1
    6898     6618     6681 1
    6899     6618     6682 1
    6900     6619     6620 1
    6901     6619     6683 1
    6902     6619     6684 1
    6903     6620     6621 1
    6904     6620     6685 1
    6905     6620     6686 1
    6906     6621     6622 1
    6907     6621     6687 1
    6908     6621     6688 1
    6909     6622     6623 1
    6910     6622     6689 1
    6911     6622     6690 1
    6912     6623     6624 1
    6913     6623     6691 1
    6914     6623     6692 1
    6915     6624     6693 1
    6916     6624     6694 1
    6917     6624     6695 1
    6918     6625     6626 1
    6919     6625     6696 1
    6920     6625     6697 1
    6921     6626     6627 1
    6922     6626     6698 1
    6923     6626     6699 1
    6924     6627     6628 1
    6925     6627     6700 1
    6926     6627     6701 1
    6927     6628     6629 1
    6928     6628     6702 1
    6929     6628     6703 1
    6930     6629     6630 1
    6931     6629     6704 1
    6932     6629     6705 1
    6933     6630     6631 1
    6934     6630     6706 1
    6935     6630     6707 1
    6936     6631     6632 1
    6937     6631     6708 1
    6938     6631     6709 1
    6939     6632     6633 1
    6940     6632     6710 1
    6941     6632     6711 1
    6942     6633     6634 1
    6943     6633     6712 1
    6944     6633     6713 1
    6945     6634     6714 1
    6946     6634     6715 1
    6947     6634     6716 1
    6948     6717     6718 1
    6949     6717     6724 1
    6950     6717     6760 1
    6951     6718     6719 1
    6952     6718     6722 1
    6953     6719     6720 1
    6954     6719     6723 1
    6955     6720     6721 1
    6956     6721     6722 1
    6957     6721     6732 1
    6958     6722     6728 1
    6959     6723     6724 1
    6960     6723     6727 1
    6961     6724     6725 1
    6962     6725     6726 1
    6963     6725     6729 1
    6964     6726     6727 1
    6965     6730     6731 1
    6966     6730     6738 1
    6967     6731     6732 1
    6968     6731     6739 1
    6969     6732     6733 1
    6970     6733     6734 1
    6971     6733     6737 1
    6972     6734     6735 1
    6973     6735     6736 1
    6974     6736     6737 1
    6975     6737     6738 1
    6976     6738     6872 1
    6977     6740     6741 1
    6978     6740     6781 1
    6979     6740     6782 1
    6980     6740     6783 1
    6981     6741     6742 1
    6982     6741     6784 1
    6983     6741     6785 1
    6984     6742     6743 1
    6985     6742     6786 1
    6986     6742     6787 1
    6987     6743     6744 1
    6988     6743     6788 1
    6989     6743     6789 1
    6990     6744     6745 1
    6991     6744     6790 1
    6992     6744     6791 1
    6993     6745     6746 1
    6994     6745     6792 1
    6995     6745     6793 1
    6996     6746     6747 1
    6997     6746     6794 1
    6998     6746     6795 1
    6999     6747     6748 1
    7000     6747     6796 1
    7001     6747     6797 1
    7002     6748     6749 1
    7003     6748     6798 1
    7004     6748     6799 1
    7005     6749     6750 1
    7006     6749     6800 1
    7007     6749     6801 1
    7008     6750     6751 1
    7009     6750     6759 1
    7010     6750     6802 1
    7011     6751     6752 1
    7012     6751     6803 1
    7013     6751     6804 1
    7014     6752     6753 1
    7015     6752     6805 1
    7016     6752     6806 1
    7017     6753     6754 1
    7018     6753     6807 1
    7019     6753     6808 1
    7020     6754     6755 1
    7021     6754     6809 1
    7022     6754     6810 1
    7023     6755     6756 1
    7024     6755     6811 1
    7025     6755     6812 1
    7026     6756     6757 1
    7027     6756     6813 1
    7028     6756     6814 1
    7029     6757     6758 1
    7030     6757     6815 1
    7031     6757     6816 1
    7032     6758     6817 1
    7033     6758     6818 1
    7034     6758     6819 1
    7035     6759     6760 1
    7036     6759     6820 1
    7037     6759     6821 1
    7038     6760     6761 1
    7039     6761     6762 1
    7040     6761     6822 1
    7041     6761     6823 1
    7042     6762     6763 1
    7043     6762     6771 1
    7044     6762     6824 1
    7045     6763     6764 1
    7046     6763     6825 1
    7047     6763     6826 1
    7048     6764     6765 1
    7049     6764     6827 1
    7050     6764     6828 1
    7051     6765     6766 1
    7052     6765     6829 1
    7053     6765     6830 1
    7054     6766     6767 1
    7055     6766     6831 1
    7056     6766     6832 1
    7057     6767     6768 1
    7058     6767     6833 1
    7059     6767     6834 1
    7060     6768     6769 1
    7061     6768     6835 1
    7062     6768     6836 1
    7063     6769     6770 1
    7064     6769     6837 1
    7065     6769     6838 1
    7066     6770     6839 1
    7067     6770     6840 1
    7068     6770     6841 1
    7069     6771     6772 1
    7070     6771     6842 1
    7071     6771     6843 1
    7072     6772     6773 1
    7073     6772     6844 1
    7074     6772     6845 1
    7075     6773     6774 1
    7076     6773     6846 1
    7077     6773     6847 1
    7078     6774     6775 1
    7079     6774     6848 1
    7080     6774     6849 1
    7081     6775     6776 1
    7082     6775     6850 1
    7083     6775     6851 1
    7084     6776     6777 1
    7085     6776     6852 1
    7086     6776     6853 1
    7087     6777     6778 1
    7088     6777     6854 1
    7089     6777     6855 1
    7090     6778     6779 1
    7091     6778     6856 1
    7092     6778     6857 1
    7093     6779     6780 1
    7094     6779     6858 1
    7095     6779     6859 1
    7096     6780     6860 1
    7097     6780     6861 1
    7098     6780     6862 1
    7099     6863     6864 1
    7100     6863     6870 1
    7101     6863     6906 1
    7102     6864     6865 1
    7103     6864     6868 1
    7104     6865     6866 1
    7105     6865     6869 1
    7106     6866     6867 1
    7107     6867     6868 1
    7108     6867     6878 1
    7109     6868     6874 1
    7110     6869     6870 1
    7111     6869     6873 1
    7112     6870     6871 1
    7113     6871     6872 1
    7114     6871     6875 1
    7115     6872     6873 1
    7116     6876     6877 1
    7117     6876     6884 1
    7118     6877     6878 1
    7119     6877     6885 1
    7120     6878     6879 1
    7121     6879     6880 1
    7122     6879     6883 1
    7123     6880     6881 1
    7124     6881     6882 1
    7125     6882     6883 1
    7126     6883     6884 1
    7127     6884     7018 1
    7128     6886     6887 1
    7129     6886     6927 1
    7130     6886     6928 1
    7131     6886     6929 1
    7132     6887     6888 1
    7133     6887     6930 1
    7134     6887     6931 1
    7135     6888     6889 1
    7136     6888     6932 1
    7137     6888     6933 1
    7138     6889     6890 1
    7139     6889     6934 1
    7140     6889     6935 1
    7141     6890     6891 1
    7142     6890     6936 1
    7143     6890     6937 1
    7144     6891     6892 1
    7145     6891     6938 1
    7146     6891     6939 1
    7147     6892     6893 1
    7148     6892     6940 1
    7149     6892     6941 1
    7150     6893     6894 1
    7151     6893     6942 1
    7152     6893     6943 1
    7153     6894     6895 1
    7154     6894     6944 1
    7155     6894     6945 1
    7156     6895     6896 1
    7157     6895     6946 1
    7158     6895     6947 1
    7159     6896     6897 1
    7160     6896     6905 1
    7161     6896     6948 1
    7162     6897     6898 1
    7163     6897     6949 1
    7164     6897     6950 1
    7165     6898     6899 1
    7166     6898     6951 1
    7167     6898     6952 1
    7168     6899     6900 1
    7169     6899     6953 1
    7170     6899     6954 1
    7171     6900     6901 1
    7172     6900     6955 1
    7173     6900     6956 1
    7174     6901     6902 1
    7175     6901     6957 1
    7176     6901     6958 1
    7177     6902     6903 1
    7178     6902     6959 1
    7179     6902     6960 1
    7180     6903     6904 1
    7181     6903     6961 1
    7182     6903     6962 1
    7183     6904     6963 1
    7184     6904     6964 1
    7185     6904     6965 1
    7186     6905     6906 1
    7187     6905     6966 1
    7188     6905     6967 1
    7189     6906     6907 1
    7190     6907     6908 1
    7191     6907     6968 1
    7192     6907     6969 1
    7193     6908     6909 1
    7194     6908     6917 1
    7195     6908     6970 1
    7196     6909     6910 1
    7197     6909     6971 1
    7198     6909     6972 1
    7199     6910     6911 1
    7200     6910     6973 1
    7201     6910     6974 1
    7202     6911     6912 1
    7203     6911     6975 1
    7204     6911     6976 1
    7205     6912     6913 1
    7206     6912     6977 1
    7207     6912     6978 1
    7208     6913     6914 1
    7209     6913     6979 1
    7210     6913     6980 1
    7211     6914     6915 1
    7212     6914     6981 1
    7213     6914     6982 1
    7214     6915     6916 1
    7215     6915     6983 1
    7216     6915     6984 1
    7217     6916     6985 1
    7218     6916     6986 1
    7219     6916     6987 1
    7220     6917     6918 1
    7221     6917     6988 1
    7222     6917     6989 1
    7223     6918     6919 1
    7224     6918     6990 1
    7225     6918     6991 1
    7226     6919     6920 1
    7227     6919     6992 1
    7228     6919     6993 1
    7229     6920     6921 1
    7230     6920     6994 1
    7231     6920     6995 1
    7232     6921     6922 1
    7233     6921     6996 1
    7234     6921     6997 1
    7235     6922     6923 1
    7236     6922     6998 1
    7237     6922     6999 1
    7238     6923     6924 1
    7239     6923     7000 1
    7240     6923     7001 1
    7241     6924     6925 1
    7242     6924     7002 1
    7243     6924     7003 1
    7244     6925     6926 1
    7245     6925     7004 1
    7246     6925     7005 1
    7247     6926     7006 1
    7248     6926     7007 1
    7249     6926     7008 1
    7250     7009     7010 1
    7251     7009     7016 1
    7252     7009     7052 1
    7253     7010     7011 1
    7254     7010     7014 1
    7255     7011     7012 1
    7256     7011     7015 1
    7257     7012     7013 1
    7258     7013     7014 1
    7259     7013     7024 1
    7260     7014     7020 1
    7261     7015     7016 1
    7262     7015     7019 1
    7263     7016     7017 1
    7264     7017     7018 1
    7265     7017     7021 1
    7266     7018     7019 1
    7267     7022     7023 1
    7268     7022     7030 1
    7269     7023     7024 1
    7270     7023     7031 1
    7271     7024     7025 1
    7272     7025     7026 1
    7273     7025     7029 1
    7274     7026     7027 1
    7275     7027     7028 1
    7276     7028     7029 1
    7277     7029     7030 1
    7278     7030     7164 1
    7279     7032     7033 1
    7280     7032     7073 1
    7281     7032     7074 1
    7282     7032     7075 1
    7283     7033     7034 1
    7284     7033     7076 1
    7285     7033     7077 1
    7286     7034     7035 1
    7287     7034     7078 1
    7288     7034     7079 1
    7289     7035     7036 1
    7290     7035     7080 1
    7291     7035     7081 1
    7292     7036     7037 1
    7293     7036     7082 1
    7294     7036     7083 1
    7295     7037     7038 1
    7296     7037     7084 1
    7297     7037     7085 1
    7298     7038     7039 1
    7299     7038     7086 1
    7300     7038     7087 1
    7301     7039     7040 1
    7302     7039     7088 1
    7303     7039     7089 1
    7304     7040     7041 1
    7305     7040     7090 1
    7306     7040     7091 1
    7307     7041     7042 1
    7308     7041     7092 1
    7309     7041     7093 1
    7310     7042     7043 1
    7311     7042     7051 1
    7312     7042     7094 1
    7313     7043     7044 1
    7314     7043     7095 1
    7315     7043     7096 1
    7316     7044     7045 1
    7317     7044     7097 1
    7318     7044     7098 1
    7319     7045     7046 1
    7320     7045     7099 1
    7321     7045     7100 1
    7322     7046     7047 1
    7323     7046     7101 1
    7324     7046     7102 1
    7325     7047     7048 1
    7326     7047     7103 1
    7327     7047     7104 1
    7328     7048     7049 1
    7329     7048     7105 1
    7330     7048     7106 1
    7331     7049     7050 1
    7332     7049     7107 1
    7333     7049     7108 1
    7334     7050     7109 1
    7335     7050     7110 1
    7336     7050     7111 1
    7337     7051     7052 1
    7338     7051     7112 1
    7339     7051     7113 1
    7340     7052     7053 1
    7341     7053     7054 1
    7342     7053     7114 1
    7343     7053     7115 1
    7344     7054     7055 1
    7345     7054     7063 1
    7346     7054     7116 1
    7347     7055     7056 1
    7348     7055     7117 1
    7349     7055     7118 1
    7350     7056     7057 1
    7351     7056     7119 1
    7352     7056     7120 1
    7353     7057     7058 1
    7354     7057     7121 1
    7355     7057     7122 1
    7356     7058     7059 1
    7357     7058     7123 1
    7358     7058     7124 1
    7359     7059     7060 1
    7360     7059     7125 1
    7361     7059     7126 1
    7362     7060     7061 1
    7363     7060     7127 1
    7364     7060     7128 1
    7365     7061     7062 1
    7366     7061     7129 1
    7367     7061     7130 1
    7368     7062     7131 1
    7369     7062     7132 1
    7370     7062     7133 1
    7371     7063     7064 1
    7372     7063     7134 1
    7373     7063     7135 1
    7374     7064     7065 1
    7375     7064     7136 1
    7376     7064     7137 1
    7377     7065     7066 1
    7378     7065     7138 1
    7379     7065     7139 1
    7380     7066     7067 1
    7381     7066     7140 1
    7382     7066     7141 1
    7383     7067     7068 1
    7384     7067     7142 1
    7385     7067     7143 1
    7386     7068     7069 1
    7387     7068     7144 1
    7388     7068     7145 1
    7389     7069     7070 1
    7390     7069     7146 1
    7391     7069     7147 1
    7392     7070     7071 1
    7393     7070     7148 1
    7394     7070     7149 1
    7395     7071     7072 1
    7396     7071     7150 1
    7397     7071     7151 1
    7398     7072     7152 1
    7399     7072     7153 1
    7400     7072     7154 1
    7401     7155     7156 1
    7402     7155     7162 1
    7403     7155     7198 1
    7404     7156     7157 1
    7405     7156     7160 1
    7406     7157     7158 1
    7407     7157     7161 1
    7408     7158     7159 1
    7409     7159     7160 1
    7410     7159     7170 1
    7411     7160     7166 1
    7412     7161     7162 1
    7413     7161     7165 1
    7414     7162     7163 1
    7415     7163     7164 1
    7416     7163     7167 1
    7417     7164     7165 1
    7418     7168     7169 1
    7419     7168     7176 1
    7420     7169     7170 1
    7421     7169     7177 1
    7422     7170     7171 1
    7423     7171     7172 1
    7424     7171     7175 1
    7425     7172     7173 1
    7426     7173     7174 1
    7427     7174     7175 1
    7428     7175     7176 1
    7429     7176     7310 1
    7430     7178     7179 1
    7431     7178     7219 1
    7432     7178     7220 1
    7433     7178     7221 1
    7434     7179     7180 1
    7435     7179     7222 1
    7436     7179     7223 1
    7437     7180     7181 1
    7438     7180     7224 1
    7439     7180     7225 1
    7440     7181     7182 1
    7441     7181     7226 1
    7442     7181     7227 1
    7443     7182     7183 1
    7444     7182     7228 1
    7445     7182     7229 1
    7446     7183     7184 1
    7447     7183     7230 1
    7448     7183     7231 1
    7449     7184     7185 1
    7450     7184     7232 1
    7451     7184     7233 1
    7452     7185     7186 1
    7453     7185     7234 1
    7454     7185     7235 1
    7455     7186     7187 1
    7456     7186     7236 1
    7457     7186     7237 1
    7458     7187     7188 1
    7459     7187     7238 1
    7460     7187     7239 1
    7461     7188     7189 1
    7462     7188     7197 1
    7463     7188     7240 1
    7464     7189     7190 1
    7465     7189     7241 1
    7466     7189     7242 1
    7467     7190     7191 1
    7468     7190     7243 1
    7469     7190     7244 1
    7470     7191     7192 1
    7471     7191     7245 1
    7472     7191     7246 1
    7473     7192     7193 1
    7474     7192     7247 1
    7475     7192     7248 1
    7476     7193     7194 1
    7477     7193     7249 1
    7478     7193     7250 1
    7479     7194     7195 1
    7480     7194     7251 1
    7481     7194     7252 1
    7482     7195     7196 1
    7483     7195     7253 1
    7484     7195     7254 1
    7485     7196     7255 1
    7486     7196     7256 1
    7487     7196     7257 1
    7488     7197     7198 1
    7489     7197     7258 1
    7490     7197     7259 1
    7491     7198     7199 1
    7492     7199     7200 1
    7493     7199     7260 1
    7494     7199     7261 1
    7495     7200     7201 1
    7496     7200     7209 1
    7497     7200     7262 1
    7498     7201     7202 1
    7499     7201     7263 1
    7500     7201     7264 1
    7501     7202     7203 1
    7502     7202     7265 1
    7503     7202     7266 1
    7504     7203     7204 1
    7505     7203     7267 1
    7506     7203     7268 1
    7507     7204     7205 1
    7508     7204     7269 1
    7509     7204     7270 1
    7510     7205     7206 1
    7511     7205     7271 1
    7512     7205     7272 1
    7513     7206     7207 1
    7514     7206     7273 1
    7515     7206     7274 1
    7516     7207     7208 1
    7517     7207     7275 1
    7518     7207     7276 1
    7519     7208     7277 1
    7520     7208     7278 1
    7521     7208     7279 1
    7522     7209     7210 1
    7523     7209     7280 1
    7524     7209     7281 1
    7525     7210     7211 1
    7526     7210     7282 1
    7527     7210     7283 1
    7528     7211     7212 1
    7529     7211     7284 1
    7530     7211     7285 1
    7531     7212     7213 1
    7532     7212     7286 1
    7533     7212     7287 1
    7534     7213     7214 1
    7535     7213     7288 1
    7536     7213     7289 1
    7537     7214     7215 1
    7538     7214     7290 1
    7539     7214     7291 1
    7540     7215     7216 1
    7541     7215     7292 1
    7542     7215     7293 1
    7543     7216     7217 1
    7544     7216     7294 1
    7545     7216     7295 1
    7546     7217     7218 1
    7547     7217     7296 1
    7548     7217     7297 1
    7549     7218     7298 1
    7550     7218     7299 1
    7551     7218     7300 1
    7552     7301     7302 1
    7553     7301     7308 1
    7554     7301     7344 1
    7555     7302     7303 1
    7556     7302     7306 1
    7557     7303     7304 1
    7558     7303     7307 1
    7559     7304     7305 1
    7560     7305     7306 1
    7561     7305     7316 1
    7562     7306     7312 1
    7563     7307     7308 1
    7564     7307     7311 1
    7565     7308     7309 1
    7566     7309     7310 1
    7567     7309     7313 1
    7568     7310     7311 1
    7569     7314     7315 1
    7570     7314     7322 1
    7571     7315     7316 1
    7572     7315     7323 1
    7573     7316     7317 1
    7574     7317     7318 1
    7575     7317     7321 1
    7576     7318     7319 1
    7577     7319     7320 1
    7578     7320     7321 1
    7579     7321     7322 1
    7580     7322     7456 1
    7581     7324     7325 1
    7582     7324     7365 1
    7583     7324     7366 1
    7584     7324     7367 1
    7585     7325     7326 1
    7586     7325     7368 1
    7587     7325     7369 1
    7588     7326     7327 1
    7589     7326     7370 1
    7590     7326     7371 1
    7591     7327     7328 1
    7592     7327     7372 1
    7593     7327     7373 1
    7594     7328     7329 1
    7595     7328     7374 1
    7596     7328     7375 1
    7597     7329     7330 1
    7598     7329     7376 1
    7599     7329     7377 1
    7600     7330     7331 1
    7601     7330     7378 1
    7602     7330     7379 1
    7603     7331     7332 1
    7604     7331     7380 1
    7605     7331     7381 1
    7606     7332     7333 1
    7607     7332     7382 1
    7608     7332     7383 1
    7609     7333     7334 1
    7610     7333     7384 1
    7611     7333     7385 1
    7612     7334     7335 1
    7613     7334     7343 1
    7614     7334     7386 1
    7615     7335     7336 1
    7616     7335     7387 1
    7617     7335     7388 1
    7618     7336     7337 1
    7619     7336     7389 1
    7620     7336     7390 1
    7621     7337     7338 1
    7622     7337     7391 1
    7623     7337     7392 1
    7624     7338     7339 1
    7625     7338     7393 1
    7626     7338     7394 1
    7627     7339     7340 1
    7628     7339     7395 1
    7629     7339     7396 1
    7630     7340     7341 1
    7631     7340     7397 1
    7632     7340     7398 1
    7633     7341     7342 1
    7634     7341     7399 1
    7635     7341     7400 1
    7636     7342     7401 1
    7637     7342     7402 1
    7638     7342     7403 1
    7639     7343     7344 1
    7640     7343     7404 1
    7641     7343     7405 1
    7642     7344     7345 1
    7643     7345     7346 1
    7644     7345     7406 1
    7645     7345     7407 1
    7646     7346     7347 1
    7647     7346     7355 1
    7648     7346     7408 1
    7649     7347     7348 1
    7650     7347     7409 1
    7651     7347     7410 1
    7652     7348     7349 1
    7653     7348     7411 1
    7654     7348     7412 1
    7655     7349     7350 1
    7656     7349     7413 1
    7657     7349     7414 1
    7658     7350     7351 1
    7659     7350     7415 1
    7660     7350     7416 1
    7661     7351     7352 1
    7662     7351     7417 1
    7663     7351     7418 1
    7664     7352     7353 1
    7665     7352     7419 1
    7666     7352     7420 1
    7667     7353     7354 1
    7668     7353     7421 1
    7669     7353     7422 1
    7670     7354     7423 1
    7671     7354     7424 1
    7672     7354     7425 1
    7673     7355     7356 1
    7674     7355     7426 1
    7675     7355     7427 1
    7676     7356     7357 1
    7677     7356     7428 1
    7678     7356     7429 1
    7679     7357     7358 1
    7680     7357     7430 1
    7681     7357     7431 1
    7682     7358     7359 1
    7683     7358     7432 1
    7684     7358     7433 1
    7685     7359     7360 1
    7686     7359     7434 1
    7687     7359     7435 1
    7688     7360     7361 1
    7689     7360     7436 1
    7690     7360     7437 1
    7691     7361     7362 1
    7692     7361     7438 1
    7693     7361     7439 1
    7694     7362     7363 1
    7695     7362     7440 1
    7696     7362     7441 1
    7697     7363     7364 1
    7698     7363     7442 1
    7699     7363     7443 1
    7700     7364     7444 1
    7701     7364     7445 1
    7702     7364     7446 1
    7703     7447     7448 1
    7704     7447     7454 1
    7705     7447     7490 1
    7706     7448     7449 1
    7707     7448     7452 1
    7708     7449     7450 1
    7709     7449     7453 1
    7710     7450     7451 1
    7711     7451     7452 1
    7712     7451     7462 1
    7713     7452     7458 1
    7714     7453     7454 1
    7715     7453     7457 1
    7716     7454     7455 1
    7717     7455     7456 1
    7718     7455     7459 1
    7719     7456     7457 1
    7720     7460     7461 1
    7721     7460     7468 1
    7722     7461     7462 1
    7723     7461     7469 1
    7724     7462     7463 1
    7725     7463     7464 1
    7726     7463     7467 1
    7727     7464     7465 1
    7728     7465     7466 1
    7729     7466     7467 1
    7730     7467     7468 1
    7731     7468     7602 1
    7732     7470     7471 1
    7733     7470     7511 1
    7734     7470     7512 1
    7735     7470     7513 1
    7736     7471     7472 1
    7737     7471     7514 1
    7738     7471     7515 1
    7739     7472     7473 1
    7740     7472     7516 1
    7741     7472     7517 1
    7742     7473     7474 1
    7743     7473     7518 1
    7744     7473     7519 1
    7745     7474     7475 1
    7746     7474     7520 1
    7747     7474     7521 1
    7748     7475     7476 1
    7749     7475     7522 1
    7750     7475     7523 1
    7751     7476     7477 1
    7752     7476     7524 1
    7753     7476     7525 1
    7754     7477     7478 1
    7755     7477     7526 1
    7756     7477     7527 1
    7757     7478     7479 1
    7758     7478     7528 1
    7759     7478     7529 1
    7760     7479     7480 1
    7761     7479     7530 1
    7762     7479     7531 1
    7763     7480     7481 1
    7764     7480     7489 1
    7765     7480     7532 1
    7766     7481     7482 1
    7767     7481     7533 1
    7768     7481     7534 1
    7769     7482     7483 1
    7770     7482     7535 1
    7771     7482     7536 1
    7772     7483     7484 1
    7773     7483     7537 1
    7774     7483     7538 1
    7775     7484     7485 1
    7776     7484     7539 1
    7777     7484     7540 1
    7778     7485     7486 1
    7779     7485     7541 1
    7780     7485     7542 1
    7781     7486     7487 1
    7782     7486     7543 1
    7783     7486     7544 1
    7784     7487     7488 1
    7785     7487     7545 1
    7786     7487     7546 1
    7787     7488     7547 1
    7788     7488     7548 1
    7789     7488     7549 1
    7790     7489     7490 1
    7791     7489     7550 1
    7792     7489     7551 1
    7793     7490     7491 1
    7794     7491     7492 1
    7795     7491     7552 1
    7796     7491     7553 1
    7797     7492     7493 1
    7798     7492     7501 1
    7799     7492     7554 1
    7800     7493     7494 1
    7801     7493     7555 1
    7802     7493     7556 1
    7803     7494     7495 1
    7804     7494     7557 1
    7805     7494     7558 1
    7806     7495     7496 1
    7807     7495     7559 1
    7808     7495     7560 1
    7809     7496     7497 1
    7810     7496     7561 1
    7811     7496     7562 1
    7812     7497     7498 1
    7813     7497     7563 1
    7814     7497     7564 1
    7815     7498     7499 1
    7816     7498     7565 1
    7817     7498     7566 1
    7818     7499     7500 1
    7819     7499     7567 1
    7820     7499     7568 1
    7821     7500     7569 1
    7822     7500     7570 1
    7823     7500     7571 1
    7824     7501     7502 1
    7825     7501     7572 1
    7826     7501     7573 1
    7827     7502     7503 1
    7828     7502     7574 1
    7829     7502     7575 1
    7830     7503     7504 1
    7831     7503     7576 1
    7832     7503     7577 1
    7833     7504     7505 1
    7834     7504     7578 1
    7835     7504     7579 1
    7836     7505     7506 1
    7837     7505     7580 1
    7838     7505     7581 1
    7839     7506     7507 1
    7840     7506     7582 1
    7841     7506     7583 1
    7842     7507     7508 1
    7843     7507     7584 1
    7844     7507     7585 1
    7845     7508     7509 1
    7846     7508     7586 1
    7847     7508     7587 1
    7848     7509     7510 1
    7849     7509     7588 1
    7850     7509     7589 1
    7851     7510     7590 1
    7852     7510     7591 1
    7853     7510     7592 1
    7854     7593     7594 1
    7855     7593     7600 1
    7856     7593     7636 1
    7857     7594     7595 1
    7858     7594     7598 1
    7859     7595     7596 1
    7860     7595     7599 1
    7861     7596     7597 1
    7862     7597     7598 1
    7863     7597     7608 1
    7864     7598     7604 1
    7865     7599     7600 1
    7866     7599     7603 1
    7867     7600     7601 1
    7868     7601     7602 1
    7869     7601     7605 1
    7870     7602     7603 1
    7871     7606     7607 1
    7872     7606     7614 1
    7873     7607     7608 1
    7874     7607     7615 1
    7875     7608     7609 1
    7876     7609     7610 1
    7877     7609     7613 1
    7878     7610     7611 1
    7879     7611     7612 1
    7880     7612     7613 1
    7881     7613     7614 1
    7882     7614     7748 1
    7883     7616     7617 1
    7884     7616     7657 1
    7885     7616     7658 1
    7886     7616     7659 1
    7887     7617     7618 1
    7888     7617     7660 1
    7889     7617     7661 1
    7890     7618     7619 1
    7891     7618     7662 1
    7892     7618     7663 1
    7893     7619     7620 1
    7894     7619     7664 1
    7895     7619     7665 1
    7896     7620     7621 1
    7897     7620     7666 1
    7898     7620     7667 1
    7899     7621     7622 1
    7900     7621     7668 1
    7901     7621     7669 1
    7902     7622     7623 1
    7903     7622     7670 1
    7904     7622     7671 1
    7905     7623     7624 1
    7906     7623     7672 1
    7907     7623     7673 1
    7908     7624     7625 1
    7909     7624     7674 1
    7910     7624     7675 1
    7911     7625     7626 1
    7912     7625     7676 1
    7913     7625     7677 1
    7914     7626     7627 1
    7915     7626     7635 1
    7916     7626     7678 1
    7917     7627     7628 1
    7918     7627     7679 1
    7919     7627     7680 1
    7920     7628     7629 1
    7921     7628     7681 1
    7922     7628     7682 1
    7923     7629     7630 1
    7924     7629     7683 1
    7925     7629     7684 1
    7926     7630     7631 1
    7927     7630     7685 1
    7928     7630     7686 1
    7929     7631     7632 1
    7930     7631     7687 1
    7931     7631     7688 1
    7932     7632     7633 1
    7933     7632     7689 1
    7934     7632     7690 1
    7935     7633     7634 1
    7936     7633     7691 1
    7937     7633     7692 1
    7938     7634     7693 1
    7939     7634     7694 1
    7940     7634     7695 1
    7941     7635     7636 1
    7942     7635     7696 1
    7943     7635     7697 1
    7944     7636     7637 1
    7945     7637     7638 1
    7946     7637     7698 1
    7947     7637     7699 1
    7948     7638     7639 1
    7949     7638     7647 1
    7950     7638     7700 1
    7951     7639     7640 1
    7952     7639     7701 1
    7953     7639     7702 1
    7954     7640     7641 1
    7955     7640     7703 1
    7956     7640     7704 1
    7957     7641     7642 1
    7958     7641     7705 1
    7959     7641     7706 1
    7960     7642     7643 1
    7961     7642     7707 1
    7962     7642     7708 1
    7963     7643     7644 1
    7964     7643     7709 1
    7965     7643     7710 1
    7966     7644     7645 1
    7967     7644     7711 1
    7968     7644     7712 1
    7969     7645     7646 1
    7970     7645     7713 1
    7971     7645     7714 1
    7972     7646     7715 1
    7973     7646     7716 1
    7974     7646     7717 1
    7975     7647     7648 1
    7976     7647     7718 1
    7977     7647     7719 1
    7978     7648     7649 1
    7979     7648     7720 1
    7980     7648     7721 1
    7981     7649     7650 1
    7982     7649     7722 1
    7983     7649     7723 1
    7984     7650     7651 1
    7985     7650     7724 1
    7986     7650     7725 1
    7987     7651     7652 1
    7988     7651     7726 1
    7989     7651     7727 1
    7990     7652     7653 1
    7991     7652     7728 1
    7992     7652     7729 1
    7993     7653     7654 1
    7994     7653     7730 1
    7995     7653     7731 1
    7996     7654     7655 1
    7997     7654     7732 1
    7998     7654     7733 1
    7999     7655     7656 1
    8000     7655     7734 1
    8001     7655     7735 1
    8002     7656     7736 1
    8003     7656     7737 1
    8004     7656     7738 1
    8005     7739     7740 1
    8006     7739     7746 1
    8007     7739     7782 1
    8008     7740     7741 1
    8009     7740     7744 1
    8010     7741     7742 1
    8011     7741     7745 1
    8012     7742     7743 1
    8013     7743     7744 1
    8014     7743     7754 1
    8015     7744     7750 1
    8016     7745     7746 1
    8017     7745     7749 1
    8018     7746     7747 1
    8019     7747     7748 1
    8020     7747     7751 1
    8021     7748     7749 1
    8022     7752     7753 1
    8023     7752     7760 1
    8024     7753     7754 1
    8025     7753     7761 1
    8026     7754     7755 1
    8027     7755     7756 1
    8028     7755     7759 1
    8029     7756     7757 1
    8030     7757     7758 1
    8031     7758     7759 1
    8032     7759     7760 1
    8033     7760     7894 1
    8034     7762     7763 1
    8035     7762     7803 1
    8036     7762     7804 1
    8037     7762     7805 1
    8038     7763     7764 1
    8039     7763     7806 1
    8040     7763     7807 1
    8041     7764     7765 1
    8042     7764     7808 1
    8043     7764     7809 1
    8044     7765     7766 1
    8045     7765     7810 1
    8046     7765     7811 1
    8047     7766     7767 1
    8048     7766     7812 1
    8049     7766     7813 1
    8050     7767     7768 1
    8051     7767     7814 1
    8052     7767     7815 1
    8053     7768     7769 1
    8054     7768     7816 1
    8055     7768     7817 1
    8056     7769     7770 1
    8057     7769     7818 1
    8058     7769     7819 1
    8059     7770     7771 1
    8060     7770     7820 1
    8061     7770     7821 1
    8062     7771     7772 1
    8063     7771     7822 1
    8064     7771     7823 1
    8065     7772     7773 1
    8066     7772     7781 1
    8067     7772     7824 1
    8068     7773     7774 1
    8069     7773     7825 1
    8070     7773     7826 1
    8071     7774     7775 1
    8072     7774     7827 1
    8073     7774     7828 1
    8074     7775     7776 1
    8075     7775     7829 1
    8076     7775     7830 1
    8077     7776     7777 1
    8078     7776     7831 1
    8079     7776     7832 1
    8080     7777     7778 1
    8081     7777     7833 1
    8082     7777     7834 1
    8083     7778     7779 1
    8084     7778     7835 1
    8085     7778     7836 1
    8086     7779     7780 1
    8087     7779     7837 1
    8088     7779     7838 1
    8089     7780     7839 1
    8090     7780     7840 1
    8091     7780     7841 1
    8092     7781     7782 1
    8093     7781     7842 1
    8094     7781     7843 1
    8095     7782     7783 1
    8096     7783     7784 1
    8097     7783     7844 1
    8098     7783     7845 1
    8099     7784     7785 1
    8100     7784     7793 1
    8101     7784     7846 1
    8102     7785     7786 1
    8103     7785     7847 1
    8104     7785     7848 1
    8105     7786     7787 1
    8106     7786     7849 1
    8107     7786     7850 1
    8108     7787     7788 1
    8109     7787     7851 1
    8110     7787     7852 1
    8111     7788     7789 1
    8112     7788     7853 1
    8113     7788     7854 1
    8114     7789     7790 1
    8115     7789     7855 1
    8116     7789     7856 1
    8117     7790     7791 1
    8118     7790     7857 1
    8119     7790     7858 1
    8120     7791     7792 1
    8121     7791     7859 1
    8122     7791     7860 1
    8123     7792     7861 1
    8124     7792     7862 1
    8125     7792     7863 1
    8126     7793     7794 1
    8127     7793     7864 1
    8128     7793     7865 1
    8129     7794     7795 1
    8130     7794     7866 1
    8131     7794     7867 1
    8132     7795     7796 1
    8133     7795     7868 1
    8134     7795     7869 1
    8135     7796     7797 1
    8136     7796     7870 1
    8137     7796     7871 1
    8138     7797     7798 1
    8139     7797     7872 1
    8140     7797     7873 1
    8141     7798     7799 1
    8142     7798     7874 1
    8143     7798     7875 1
    8144     7799     7800 1
    8145     7799     7876 1
    8146     7799     7877 1
    8147     7800     7801 1
    8148     7800     7878 1
    8149     7800     7879 1
    8150     7801     7802 1
    8151     7801     7880 1
    8152     7801     7881 1
    8153     7802     7882 1
    8154     7802     7883 1
    8155     7802     7884 1
    8156     7885     7886 1
    8157     7885     7892 1
    8158     7885     7928 1
    8159     7886     7887 1
    8160     7886     7890 1
    8161     7887     7888 1
    8162     7887     7891 1
    8163     7888     7889 1
    8164     7889     7890 1
    8165     7889     7900 1
    8166     7890     7896 1
    8167     7891     7892 1
    8168     7891     7895 1
    8169     7892     7893 1
    8170     7893     7894 1
    8171     7893     7897 1
    8172     7894     7895 1
    8173     7898     7899 1
    8174     7898     7906 1
    8175     7899     7900 1
    8176     7899     7907 1
    8177     7900     7901 1
    8178     7901     7902 1
    8179     7901     7905 1
    8180     7902     7903 1
    8181     7903     7904 1
    8182     7904     7905 1
    8183     7905     7906 1
    8184     7906     8040 1
    8185     7908     7909 1
    8186     7908     7949 1
    8187     7908     7950 1
    8188     7908     7951 1
    8189     7909     7910 1
    8190     7909     7952 1
    8191     7909     7953 1
    8192     7910     7911 1
    8193     7910     7954 1
    8194     7910     7955 1
    8195     7911     7912 1
    8196     7911     7956 1
    8197     7911     7957 1
    8198     7912     7913 1
    8199     7912     7958 1
    8200     7912     7959 1
    8201     7913     7914 1
    8202     7913     7960 1
    8203     7913     7961 1
    8204     7914     7915 1
    8205     7914     7962 1
    8206     7914     7963 1
    8207     7915     7916 1
    8208     7915     7964 1
    8209     7915     7965 1
    8210     7916     7917 1
    8211     7916     7966 1
    8212     7916     7967 1
    8213     7917     7918 1
    8214     7917     7968 1
    8215     7917     7969 1
    8216     7918     7919 1
    8217     7918     7927 1
    8218     7918     7970 1
    8219     7919     7920 1
    8220     7919     7971 1
    8221     7919     7972 1
    8222     7920     7921 1
    8223     7920     7973 1
    8224     7920     7974 1
    8225     7921     7922 1
    8226     7921     7975 1
    8227     7921     7976 1
    8228     7922     7923 1
    8229     7922     7977 1
    8230     7922     7978 1
    8231     7923     7924 1
    8232     7923     7979 1
    8233     7923     7980 1
    8234     7924     7925 1
    8235     7924     7981 1
    8236     7924     7982 1
    8237     7925     7926 1
    8238     7925     7983 1
    8239     7925     7984 1
    8240     7926     7985 1
    8241     7926     7986 1
    8242     7926     7987 1
    8243     7927     7928 1
    8244     7927     7988 1
    8245     7927     7989 1
    8246     7928     7929 1
    8247     7929     7930 1
    8248     7929     7990 1
    8249     7929     7991 1
    8250     7930     7931 1
    8251     7930     7939 1
    8252     7930     7992 1
    8253     7931     7932 1
    8254     7931     7993 1
    8255     7931     7994 1
    8256     7932     7933 1
    8257     7932     7995 1
    8258     7932     7996 1
    8259     7933     7934 1
    8260     7933     7997 1
    8261     7933     7998 1
    8262     7934     7935 1
    8263     7934     7999 1
    8264     7934     8000 1
    8265     7935     7936 1
    8266     7935     8001 1
    8267     7935     8002 1
    8268     7936     7937 1
    8269     7936     8003 1
    8270     7936     8004 1
    8271     7937     7938 1
    8272     7937     8005 1
    8273     7937     8006 1
    8274     7938     8007 1
    8275     7938     8008 1
    8276     7938     8009 1
    8277     7939     7940 1
    8278     7939     8010 1
    8279     7939     8011 1
    8280     7940     7941 1
    8281     7940     8012 1
    8282     7940     8013 1
    8283     7941     7942 1
    8284     7941     8014 1
    8285     7941     8015 1
    8286     7942     7943 1
    8287     7942     8016 1
    8288     7942     8017 1
    8289     7943     7944 1
    8290     7943     8018 1
    8291     7943     8019 1
    8292     7944     7945 1
    8293     7944     8020 1
    8294     7944     8021 1
    8295     7945     7946 1
    8296     7945     8022 1
    8297     7945     8023 1
    8298     7946     7947 1
    8299     7946     8024 1
    8300     7946     8025 1
    8301     7947     7948 1
    8302     7947     8026 1
    8303     7947     8027 1
    8304     7948     8028 1
    8305     7948     8029 1
    8306     7948     8030 1
    8307     8031     8032 1
    8308     8031     8038 1
    8309     8031     8074 1
    8310     8032     8033 1
    8311     8032     8036 1
    8312     8033     8034 1
    8313     8033     8037 1
    8314     8034     8035 1
    8315     8035     8036 1
    8316     8035     8046 1
    8317     8036     8042 1
    8318     8037     8038 1
    8319     8037     8041 1
    8320     8038     8039 1
    8321     8039     8040 1
    8322     8039     8043 1
    8323     8040     8041 1
    8324     8044     8045 1
    8325     8044     8052 1
    8326     8045     8046 1
    8327     8045     8053 1
    8328     8046     8047 1
    8329     8047     8048 1
    8330     8047     8051 1
    8331     8048     8049 1
    8332     8049     8050 1
    8333     8050     8051 1
    8334     8051     8052 1
    8335     8052     8186 1
    8336     8054     8055 1
    8337     8054     8095 1
    8338     8054     8096 1
    8339     8054     8097 1
    8340     8055     8056 1
    8341     8055     8098 1
    8342     8055     8099 1
    8343     8056     8057 1
    8344     8056     8100 1
    8345     8056     8101 1
    8346     8057     8058 1
    8347     8057     8102 1
    8348     8057     8103 1
    8349     8058     8059 1
    8350     8058     8104 1
    8351     8058     8105 1
    8352     8059     8060 1
    8353     8059     8106 1
    8354     8059     8107 1
    8355     8060     8061 1
    8356     8060     8108 1
    8357     8060     8109 1
    8358     8061     8062 1
    8359     8061     8110 1
    8360     8061     8111 1
    8361     8062     8063 1
    8362     8062     8112 1
    8363     8062     8113 1
    8364     8063     8064 1
    8365     8063     8114 1
    8366     8063     8115 1
    8367     8064     8065 1
    8368     8064     8073 1
    8369     8064     8116 1
    8370     8065     8066 1
    8371     8065     8117 1
    8372     8065     8118 1
    8373     8066     8067 1
    8374     8066     8119 1
    8375     8066     8120 1
    8376     8067     8068 1
    8377     8067     8121 1
    8378     8067     8122 1
    8379     8068     8069 1
    8380     8068     8123 1
    8381     8068     8124 1
    8382     8069     8070 1
    8383     8069     8125 1
    8384     8069     8126 1
    8385     8070     8071 1
    8386     8070     8127 1
    8387     8070     8128 1
    8388     8071     8072 1
    8389     8071     8129 1
    8390     8071     8130 1
    8391     8072     8131 1
    8392     8072     8132 1
    8393     8072     8133 1
    8394     8073     8074 1
    8395     8073     8134 1
    8396     8073     8135 1
    8397     8074     8075 1
    8398     8075     8076 1
    8399     8075     8136 1
    8400     8075     8137 1
    8401     8076     8077 1
    8402     8076     8085 1
    8403     8076     8138 1
    8404     8077     8078 1
    8405     8077     8139 1
    8406     8077     8140 1
    8407     8078     8079 1
    8408     8078     8141 1
    8409     8078     8142 1
    8410     8079     8080 1
    8411     8079     8143 1
    8412     8079     8144 1
    8413     8080     8081 1
    8414     8080     8145 1
    8415     8080     8146 1
    8416     8081     8082 1
    8417     8081     8147 1
    8418     8081     8148 1
    8419     8082     8083 1
    8420     8082     8149 1
    8421     8082     8150 1
    8422     8083     8084 1
    8423     8083     8151 1
    8424     8083     8152 1
    8425     8084     8153 1
    8426     8084     8154 1
    8427     8084     8155 1
    8428     8085     8086 1
    8429     8085     8156 1
    8430     8085     8157 1
    8431     8086     8087 1
    8432     8086     8158 1
    8433     8086     8159 1
    8434     8087     8088 1
    8435     8087     8160 1
    8436     8087     8161 1
    8437     8088     8089 1
    8438     8088     8162 1
    8439     8088     8163 1
    8440     8089     8090 1
    8441     8089     8164 1
    8442     8089     8165 1
    8443     8090     8091 1
    8444     8090     8166 1
    8445     8090     8167 1
    8446     8091     8092 1
    8447     8091     8168 1
    8448     8091     8169 1
    8449     8092     8093 1
    8450     8092     8170 1
    8451     8092     8171 1
    8452     8093     8094 1
    8453     8093     8172 1
    8454     8093     8173 1
    8455     8094     8174 1
    8456     8094     8175 1
    8457     8094     8176 1
    8458     8177     8178 1
    8459     8177     8184 1
    8460     8177     8220 1
    8461     8178     8179 1
    8462     8178     8182 1
    8463     8179     8180 1
    8464     8179     8183 1
    8465     8180     8181 1
    8466     8181     8182 1
    8467     8181     8192 1
    8468     8182     8188 1
    8469     8183     8184 1
    8470     8183     8187 1
    8471     8184     8185 1
    8472     8185     8186 1
    8473     8185     8189 1
    8474     8186     8187 1
    8475     8190     8191 1
    8476     8190     8198 1
    8477     8191     8192 1
    8478     8191     8199 1
    8479     8192     8193 1
    8480     8193     8194 1
    8481     8193     8197 1
    8482     8194     8195 1
    8483     8195     8196 1
    8484     8196     8197 1
    8485     8197     8198 1
    8486     8198     8332 1
    8487     8200     8201 1
    8488     8200     8241 1
    8489     8200     8242 1
    8490     8200     8243 1
    8491     8201     8202 1
    8492     8201     8244 1
    8493     8201     8245 1
    8494     8202     8203 1
    8495     8202     8246 1
    8496     8202     8247 1
    8497     8203     8204 1
    8498     8203     8248 1
    8499     8203     8249 1
    8500     8204     8205 1
    8501     8204     8250 1
    8502     8204     8251 1
    8503     8205     8206 1
    8504     8205     8252 1
    8505     8205     8253 1
    8506     8206     8207 1
    8507     8206     8254 1
    8508     8206     8255 1
    8509     8207     8208 1
    8510     8207     8256 1
    8511     8207     8257 1
    8512     8208     8209 1
    8513     8208     8258 1
    8514     8208     8259 1
    8515     8209     8210 1
    8516     8209     8260 1
    8517     8209     8261 1
    8518     8210     8211 1
    8519     8210     8219 1
    8520     8210     8262 1
    8521     8211     8212 1
    8522     8211     8263 1
    8523     8211     8264 1
    8524     8212     8213 1
    8525     8212     8265 1
    8526     8212     8266 1
    8527     8213     8214 1
    8528     8213     8267 1
    8529     8213     8268 1
    8530     8214     8215 1
    8531     8214     8269 1
    8532     8214     8270 1
    8533     8215     8216 1
    8534     8215     8271 1
    8535     8215     8272 1
    8536     8216     8217 1
    8537     8216     8273 1
    8538     8216     8274 1
    8539     8217     8218 1
    8540     8217     8275 1
    8541     8217     8276 1
    8542     8218     8277 1
    8543     8218     8278 1
    8544     8218     8279 1
    8545     8219     8220 1
    8546     8219     8280 1
    8547     8219     8281 1
    8548     8220     8221 1
    8549     8221     8222 1
    8550     8221     8282 1
    8551     8221     8283 1
    8552     8222     8223 1
    8553     8222     8231 1
    8554     8222     8284 1
    8555     8223     8224 1
    8556     8223     8285 1
    8557     8223     8286 1
    8558     8224     8225 1
    8559     8224     8287 1
    8560     8224     8288 1
    8561     8225     8226 1
    8562     8225     8289 1
    8563     8225     8290 1
    8564     8226     8227 1
    8565     8226     8291 1
    8566     8226     8292 1
    8567     8227     8228 1
    8568     8227     8293 1
    8569     8227     8294 1
    8570     8228     8229 1
    8571     8228     8295 1
    8572     8228     8296 1
    8573     8229     8230 1
    8574     8229     8297 1
    8575     8229     8298 1
    8576     8230     8299 1
    8577     8230     8300 1
    8578     8230     8301 1
    8579     8231     8232 1
    8580     8231     8302 1
    8581     8231     8303 1
    8582     8232     8233 1
    8583     8232     8304 1
    8584     8232     8305 1
    8585     8233     8234 1
    8586     8233     8306 1
    8587     8233     8307 1
    8588     8234     8235 1
    8589     8234     8308 1
    8590     8234     8309 1
    8591     8235     8236 1
    8592     8235     8310 1
    8593     8235     8311 1
    8594     8236     8237 1
    8595     8236     8312 1
    8596     8236     8313 1
    8597     8237     8238 1
    8598     8237     8314 1
    8599     8237     8315 1
    8600     8238     8239 1
    8601     8238     8316 1
    8602     8238     8317 1
    8603     8239     8240 1
    8604     8239     8318 1
    8605     8239     8319 1
    8606     8240     8320 1
    8607     8240     8321 1
    8608     8240     8322 1
    8609     8323     8324 1
    8610     8323     8330 1
    8611     8323     8366 1
    8612     8324     8325 1
    8613     8324     8328 1
    8614     8325     8326 1
    8615     8325     8329 1
    8616     8326     8327 1
    8617     8327     8328 1
    8618     8327     8338 1
    8619     8328     8334 1
    8620     8329     8330 1
    8621     8329     8333 1
    8622     8330     8331 1
    8623     8331     8332 1
    8624     8331     8335 1
    8625     8332     8333 1
    8626     8336     8337 1
    8627     8336     8344 1
    8628     8337     8338 1
    8629     8337     8345 1
    8630     8338     8339 1
    8631     8339     8340 1
    8632     8339     8343 1
    8633     8340     8341 1
    8634     8341     8342 1
    8635     8342     8343 1
    8636     8343     8344 1
    8637     8344     8478 1
    8638     8346     8347 1
    8639     8346     8387 1
    8640     8346     8388 1
    8641     8346     8389 1
    8642     8347     8348 1
    8643     8347     8390 1
    8644     8347     8391 1
    8645     8348     8349 1
    8646     8348     8392 1
    8647     8348     8393 1
    8648     8349     8350 1
    8649     8349     8394 1
    8650     8349     8395 1
    8651     8350     8351 1
    8652     8350     8396 1
    8653     8350     8397 1
    8654     8351     8352 1
    8655     8351     8398 1
    8656     8351     8399 1
    8657     8352     8353 1
    8658     8352     8400 1
    8659     8352     8401 1
    8660     8353     8354 1
    8661     8353     8402 1
    8662     8353     8403 1
    8663     8354     8355 1
    8664     8354     8404 1
    8665     8354     8405 1
    8666     8355     8356 1
    8667     8355     8406 1
    8668     8355     8407 1
    8669     8356     8357 1
    8670     8356     8365 1
    8671     8356     8408 1
    8672     8357     8358 1
    8673     8357     8409 1
    8674     8357     8410 1
    8675     8358     8359 1
    8676     8358     8411 1
    8677     8358     8412 1
    8678     8359     8360 1
    8679     8359     8413 1
    8680     8359     8414 1
    8681     8360     8361 1
    8682     8360     8415 1
    8683     8360     8416 1
    8684     8361     8362 1
    8685     8361     8417 1
    8686     8361     8418 1
    8687     8362     8363 1
    8688     8362     8419 1
    8689     8362     8420 1
    8690     8363     8364 1
    8691     8363     8421 1
    8692     8363     8422 1
    8693     8364     8423 1
    8694     8364     8424 1
    8695     8364     8425 1
    8696     8365     8366 1
    8697     8365     8426 1
    8698     8365     8427 1
    8699     8366     8367 1
    8700     8367     8368 1
    8701     8367     8428 1
    8702     8367     8429 1
    8703     8368     8369 1
    8704     8368     8377 1
    8705     8368     8430 1
    8706     8369     8370 1
    8707     8369     8431 1
    8708     8369     8432 1
    8709     8370     8371 1
    8710     8370     8433 1
    8711     8370     8434 1
    8712     8371     8372 1
    8713     8371     8435 1
    8714     8371     8436 1
    8715     8372     8373 1
    8716     8372     8437 1
    8717     8372     8438 1
    8718     8373     8374 1
    8719     8373     8439 1
    8720     8373     8440 1
    8721     8374     8375 1
    8722     8374     8441 1
    8723     8374     8442 1
    8724     8375     8376 1
    8725     8375     8443 1
    8726     8375     8444 1
    8727     8376     8445 1
    8728     8376     8446 1
    8729     8376     8447 1
    8730     8377     8378 1
    8731     8377     8448 1
    8732     8377     8449 1
    8733     8378     8379 1
    8734     8378     8450 1
    8735     8378     8451 1
    8736     8379     8380 1
    8737     8379     8452 1
    8738     8379     8453 1
    8739     8380     8381 1
    8740     8380     8454 1
    8741     8380     8455 1
    8742     8381     8382 1
    8743     8381     8456 1
    8744     8381     8457 1
    8745     8382     8383 1
    8746     8382     8458 1
    8747     8382     8459 1
    8748     8383     8384 1
    8749     8383     8460 1
    8750     8383     8461 1
    8751     8384     8385 1
    8752     8384     8462 1
    8753     8384     8463 1
    8754     8385     8386 1
    8755     8385     8464 1
    8756     8385     8465 1
    8757     8386     8466 1
    8758     8386     8467 1
    8759     8386     8468 1
    8760     8469     8470 1
    8761     8469     8476 1
    8762     8469     8512 1
    8763     8470     8471 1
    8764     8470     8474 1
    8765     8471     8472 1
    8766     8471     8475 1
    8767     8472     8473 1
    8768     8473     8474 1
    8769     8473     8484 1
    8770     8474     8480 1
    8771     8475     8476 1
    8772     8475     8479 1
    8773     8476     8477 1
    8774     8477     8478 1
    8775     8477     8481 1
    8776     8478     8479 1
    8777     8482     8483 1
    8778     8482     8490 1
    8779     8483     8484 1
    8780     8483     8491 1
    8781     8484     8485 1
    8782     8485     8486 1
    8783     8485     8489 1
    8784     8486     8487 1
    8785     8487     8488 1
    8786     8488     8489 1
    8787     8489     8490 1
    8788     8490     8624 1
    8789     8492     8493 1
    8790     8492     8533 1
    8791     8492     8534 1
    8792     8492     8535 1
    8793     8493     8494 1
    8794     8493     8536 1
    8795     8493     8537 1
    8796     8494     8495 1
    8797     8494     8538 1
    8798     8494     8539 1
    8799     8495     8496 1
    8800     8495     8540 1
    8801     8495     8541 1
    8802     8496     8497 1
    8803     8496     8542 1
    8804     8496     8543 1
    8805     8497     8498 1
    8806     8497     8544 1
    8807     8497     8545 1
    8808     8498     8499 1
    8809     8498     8546 1
    8810     8498     8547 1
    8811     8499     8500 1
    8812     8499     8548 1
    8813     8499     8549 1
    8814     8500     8501 1
    8815     8500     8550 1
    8816     8500     8551 1
    8817     8501     8502 1
    8818     8501     8552 1
    8819     8501     8553 1
    8820     8502     8503 1
    8821     8502     8511 1
    8822     8502     8554 1
    8823     8503     8504 1
    8824     8503     8555 1
    8825     8503     8556 1
    8826     8504     8505 1
    8827     8504     8557 1
    8828     8504     8558 1
    8829     8505     8506 1
    8830     8505     8559 1
    8831     8505     8560 1
    8832     8506     8507 1
    8833     8506     8561 1
    8834     8506     8562 1
    8835     8507     8508 1
    8836     8507     8563 1
    8837     8507     8564 1
    8838     8508     8509 1
    8839     8508     8565 1
    8840     8508     8566 1
    8841     8509     8510 1
    8842     8509     8567 1
    8843     8509     8568 1
    8844     8510     8569 1
    8845     8510     8570 1
    8846     8510     8571 1
    8847     8511     8512 1
    8848     8511     8572 1
    8849     8511     8573 1
    8850     8512     8513 1
    8851     8513     8514 1
    8852     8513     8574 1
    8853     8513     8575 1
    8854     8514     8515 1
    8855     8514     8523 1
    8856     8514     8576 1
    8857     8515     8516 1
    8858     8515     8577 1
    8859     8515     8578 1
    8860     8516     8517 1
    8861     8516     8579 1
    8862     8516     8580 1
    8863     8517     8518 1
    8864     8517     8581 1
    8865     8517     8582 1
    8866     8518     8519 1
    8867     8518     8583 1
    8868     8518     8584 1
    8869     8519     8520 1
    8870     8519     8585 1
    8871     8519     8586 1
    8872     8520     8521 1
    8873     8520     8587 1
    8874     8520     8588 1
    8875     8521     8522 1
    8876     8521     8589 1
    8877     8521     8590 1
    8878     8522     8591 1
    8879     8522     8592 1
    8880     8522     8593 1
    8881     8523     8524 1
    8882     8523     8594 1
    8883     8523     8595 1
    8884     8524     8525 1
    8885     8524     8596 1
    8886     8524     8597 1
    8887     8525     8526 1
    8888     8525     8598 1
    8889     8525     8599 1
    8890     8526     8527 1
    8891     8526     8600 1
    8892     8526     8601 1
    8893     8527     8528 1
    8894     8527     8602 1
    8895     8527     8603 1
    8896     8528     8529 1
    8897     8528     8604 1
    8898     8528     8605 1
    8899     8529     8530 1
    8900     8529     8606 1
    8901     8529     8607 1
    8902     8530     8531 1
    8903     8530     8608 1
    8904     8530     8609 1
    8905     8531     8532 1
    8906     8531     8610 1
    8907     8531     8611 1
    8908     8532     8612 1
    8909     8532     8613 1
    8910     8532     8614 1
    8911     8615     8616 1
    8912     8615     8622 1
    8913     8615     8658 1
    8914     8616     8617 1
    8915     8616     8620 1
    8916     8617     8618 1
    8917     8617     8621 1
    8918     8618     8619 1
    8919     8619     8620 1
    8920     8619     8630 1
    8921     8620     8626 1
    8922     8621     8622 1
    8923     8621     8625 1
    8924     8622     8623 1
    8925     8623     8624 1
    8926     8623     8627 1
    8927     8624     8625 1
    8928     8628     8629 1
    8929     8628     8636 1
    8930     8629     8630 1
    8931     8629     8637 1
    8932     8630     8631 1
    8933     8631     8632 1
    8934     8631     8635 1
    8935     8632     8633 1
    8936     8633     8634 1
    8937     8634     8635 1
    8938     8635     8636 1
    8939     8636     8770 1
    8940     8638     8639 1
    8941     8638     8679 1
    8942     8638     8680 1
    8943     8638     8681 1
    8944     8639     8640 1
    8945     8639     8682 1
    8946     8639     8683 1
    8947     8640     8641 1
    8948     8640     8684 1
    8949     8640     8685 1
    8950     8641     8642 1
    8951     8641     8686 1
    8952     8641     8687 1
    8953     8642     8643 1
    8954     8642     8688 1
    8955     8642     8689 1
    8956     8643     8644 1
    8957     8643     8690 1
    8958     8643     8691 1
    8959     8644     8645 1
    8960     8644     8692 1
    8961     8644     8693 1
    8962     8645     8646 1
    8963     8645     8694 1
    8964     8645     8695 1
    8965     8646     8647 1
    8966     8646     8696 1
    8967     8646     8697 1
    8968     8647     8648 1
    8969     8647     8698 1
    8970     8647     8699 1
    8971     8648     8649 1
    8972     8648     8657 1
    8973     8648     8700 1
    8974     8649     8650 1
    8975     8649     8701 1
    8976     8649     8702 1
    8977     8650     8651 1
    8978     8650     8703 1
    8979     8650     8704 1
    8980     8651     8652 1
    8981     8651     8705 1
    8982     8651     8706 1
    8983     8652     8653 1
    8984     8652     8707 1
    8985     8652     8708 1
    8986     8653     8654 1
    8987     8653     8709 1
    8988     8653     8710 1
    8989     8654     8655 1
    8990     8654     8711 1
    8991     8654     8712 1
    8992     8655     8656 1
    8993     8655     8713 1
    8994     8655     8714 1
    8995     8656     8715 1
    8996     8656     8716 1
    8997     8656     8717 1
    8998     8657     8658 1
    8999     8657     8718 1
    9000     8657     8719 1
    9001     8658     8659 1
    9002     8659     8660 1
    9003     8659     8720 1
    9004     8659     8721 1
    9005     8660     8661 1
    9006     8660     8669 1
    9007     8660     8722 1
    9008     8661     8662 1
    9009     8661     8723 1
    9010     8661     8724 1
    9011     8662     8663 1
    9012     8662     8725 1
    9013     8662     8726 1
    9014     8663     8664 1
    9015     8663     8727 1
    9016     8663     8728 1
    9017     8664     8665 1
    9018     8664     8729 1
    9019     8664     8730 1
    9020     8665     8666 1
    9021     8665     8731 1
    9022     8665     8732 1
    9023     8666     8667 1
    9024     8666     8733 1
    9025     8666     8734 1
    9026     8667     8668 1
    9027     8667     8735 1
    9028     8667     8736 1
    9029     8668     8737 1
    9030     8668     8738 1
    9031     8668     8739 1
    9032     8669     8670 1
    9033     8669     8740 1
    9034     8669     8741 1
    9035     8670     8671 1
    9036     8670     8742 1
    9037     8670     8743 1
    9038     8671     8672 1
    9039     8671     8744 1
    9040     8671     8745 1
    9041     8672     8673 1
    9042     8672     8746 1
    9043     8672     8747 1
    9044     8673     8674 1
    9045     8673     8748 1
    9046     8673     8749 1
    9047     8674     8675 1
    9048     8674     8750 1
    9049     8674     8751 1
    9050     8675     8676 1
    9051     8675     8752 1
    9052     8675     8753 1
    9053     8676     8677 1
    9054     8676     8754 1
    9055     8676     8755 1
    9056     8677     8678 1
    9057     8677     8756 1
    9058     8677     8757 1
    9059     8678     8758 1
    9060     8678     8759 1
    9061     8678     8760 1
    9062     8761     8762 1
    9063     8761     8768 1
    9064     8761     8804 1
    9065     8762     8763 1
    9066     8762     8766 1
    9067     8763     8764 1
    9068     8763     8767 1
    9069     8764     8765 1
    9070     8765     8766 1
    9071     8765     8776 1
    9072     8766     8772 1
    9073     8767     8768 1
    9074     8767     8771 1
    9075     8768     8769 1
    9076     8769     8770 1
    9077     8769     8773 1
    9078     8770     8771 1
    9079     8774     8775 1
    9080     8774     8782 1
    9081     8775     8776 1
    9082     8775     8783 1
    9083     8776     8777 1
    9084     8777     8778 1
    9085     8777     8781 1
    9086     8778     8779 1
    9087     8779     8780 1
    9088     8780     8781 1
    9089     8781     8782 1
    9090     8782     8916 1
    9091     8784     8785 1
    9092     8784     8825 1
    9093     8784     8826 1
    9094     8784     8827 1
    9095     8785     8786 1
    9096     8785     8828 1
    9097     8785     8829 1
    9098     8786     8787 1
    9099     8786     8830 1
    9100     8786     8831 1
    9101     8787     8788 1
    9102     8787     8832 1
    9103     8787     8833 1
    9104     8788     8789 1
    9105     8788     8834 1
    9106     8788     8835 1
    9107     8789     8790 1
    9108     8789     8836 1
    9109     8789     8837 1
    9110     8790     8791 1
    9111     8790     8838 1
    9112     8790     8839 1
    9113     8791     8792 1
    9114     8791     8840 1
    9115     8791     8841 1
    9116     8792     8793 1
    9117     8792     8842 1
    9118     8792     8843 1
    9119     8793     8794 1
    9120     8793     8844 1
    9121     8793     8845 1
    9122     8794     8795 1
    9123     8794     8803 1
    9124     8794     8846 1
    9125     8795     8796 1
    9126     8795     8847 1
    9127     8795     8848 1
    9128     8796     8797 1
    9129     8796     8849 1
    9130     8796     8850 1
    9131     8797     8798 1
    9132     8797     8851 1
    9133     8797     8852 1
    9134     8798     8799 1
    9135     8798     8853 1
    9136     8798     8854 1
    9137     8799     8800 1
    9138     8799     8855 1
    9139     8799     8856 1
    9140     8800     8801 1
    9141     8800     8857 1
    9142     8800     8858 1
    9143     8801     8802 1
    9144     8801     8859 1
    9145     8801     8860 1
    9146     8802     8861 1
    9147     8802     8862 1
    9148     8802     8863 1
    9149     8803     8804 1
    9150     8803     8864 1
    9151     8803     8865 1
    9152     8804     8805 1
    9153     8805     8806 1
    9154     8805     8866 1
    9155     8805     8867 1
    9156     8806     8807 1
    9157     8806     8815 1
    9158     8806     8868 1
    9159     8807     8808 1
    9160     8807     8869 1
    9161     8807     8870 1
    9162     8808     8809 1
    9163     8808     8871 1
    9164     8808     8872 1
    9165     8809     8810 1
    9166     8809     8873 1
    9167     8809     8874 1
    9168     8810     8811 1
    9169     8810     8875 1
    9170     8810     8876 1
    9171     8811     8812 1
    9172     8811     8877 1
    9173     8811     8878 1
    9174     8812     8813 1
    9175     8812     8879 1
    9176     8812     8880 1
    9177     8813     8814 1
    9178     8813     8881 1
    9179     8813     8882 1
    9180     8814     8883 1
    9181     8814     8884 1
    9182     8814     8885 1
    9183     8815     8816 1
    9184     8815     8886 1
    9185     8815     8887 1
    9186     8816     8817 1
    9187     8816     8888 1
    9188     8816     8889 1
    9189     8817     8818 1
    9190     8817     8890 1
    9191     8817     8891 1
    9192     8818     8819 1
    9193     8818     8892 1
    9194     8818     8893 1
    9195     8819     8820 1
    9196     8819     8894 1
    9197     8819     8895 1
    9198     8820     8821 1
    9199     8820     8896 1
    9200     8820     8897 1
    9201     8821     8822 1
    9202     8821     8898 1
    9203     8821     8899 1
    9204     8822     8823 1
    9205     8822     8900 1
    9206     8822     8901 1
    9207     8823     8824 1
    9208     8823     8902 1
    9209     8823     8903 1
    9210     8824     8904 1
    9211     8824     8905 1
    9212     8824     8906 1
    9213     8907     8908 1
    9214     8907     8914 1
    9215     8907     8950 1
    9216     8908     8909 1
    9217     8908     8912 1
    9218     8909     8910 1
    9219     8909     8913 1
    9220     8910     8911 1
    9221     8911     8912 1
    9222     8911     8922 1
    9223     8912     8918 1
    9224     8913     8914 1
    9225     8913     8917 1
    9226     8914     8915 1
    9227     8915     8916 1
    9228     8915     8919 1
    9229     8916     8917 1
    9230     8920     8921 1
    9231     8920     8928 1
    9232     8921     8922 1
    9233     8921     8929 1
    9234     8922     8923 1
    9235     8923     8924 1
    9236     8923     8927 1
    9237     8924     8925 1
    9238     8925     8926 1
    9239     8926     8927 1
    9240     8927     8928 1
    9241     8928     9062 1
    9242     8930     8931 1
    9243     8930     8971 1
    9244     8930     8972 1
    9245     8930     8973 1
    9246     8931     8932 1
    9247     8931     8974 1
    9248     8931     8975 1
    9249     8932     8933 1
    9250     8932     8976 1
    9251     8932     8977 1
    9252     8933     8934 1
    9253     8933     8978 1
    9254     8933     8979 1
    9255     8934     8935 1
    9256     8934     8980 1
    9257     8934     8981 1
    9258     8935     8936 1
    9259     8935     8982 1
    9260     8935     8983 1
    9261     8936     8937 1
    9262     8936     8984 1
    9263     8936     8985 1
    9264     8937     8938 1
    9265     8937     8986 1
    9266     8937     8987 1
    9267     8938     8939 1
    9268     8938     8988 1
    9269     8938     8989 1
    9270     8939     8940 1
    9271     8939     8990 1
    9272     8939     8991 1
    9273     8940     8941 1
    9274     8940     8949 1
    9275     8940     8992 1
    9276     8941     8942 1
    9277     8941     8993 1
    9278     8941     8994 1
    9279     8942     8943 1
    9280     8942     8995 1
    9281     8942     8996 1
    9282     8943     8944 1
    9283     8943     8997 1
    9284     8943     8998 1
    9285     8944     8945 1
    9286     8944     8999 1
    9287     8944     9000 1
    9288     8945     8946 1
    9289     8945     9001 1
    9290     8945     9002 1
    9291     8946     8947 1
    9292     8946     9003 1
    9293     8946     9004 1
    9294     8947     8948 1
    9295     8947     9005 1
    9296     8947     9006 1
    9297     8948     9007 1
    9298     8948     9008 1
    9299     8948     9009 1
    9300     8949     8950 1
    9301     8949     9010 1
    9302     8949     9011 1
    9303     8950     8951 1
    9304     8951     8952 1
    9305     8951     9012 1
    9306     8951     9013 1
    9307     8952     8953 1
    9308     8952     8961 1
    9309     8952     9014 1
    9310     8953     8954 1
    9311     8953     9015 1
    9312     8953     9016 1
    9313     8954     8955 1
    9314     8954     9017 1
    9315     8954     9018 1
    9316     8955     8956 1
    9317     8955     9019 1
    9318     8955     9020 1
    9319     8956     8957 1
    9320     8956     9021 1
    9321     8956     9022 1
    9322     8957     8958 1
    9323     8957     9023 1
    9324     8957     9024 1
    9325     8958     8959 1
    9326     8958     9025 1
    9327     8958     9026 1
    9328     8959     8960 1
    9329     8959     9027 1
    9330     8959     9028 1
    9331     8960     9029 1
    9332     8960     9030 1
    9333     8960     9031 1
    9334     8961     8962 1
    9335     8961     9032 1
    9336     8961     9033 1
    9337     8962     8963 1
    9338     8962     9034 1
    9339     8962     9035 1
    9340     8963     8964 1
    9341     8963     9036 1
    9342     8963     9037 1
    9343     8964     8965 1
    9344     8964     9038 1
    9345     8964     9039 1
    9346     8965     8966 1
    9347     8965     9040 1
    9348     8965     9041 1
    9349     8966     8967 1
    9350     8966     9042 1
    9351     8966     9043 1
    9352     8967     8968 1
    9353     8967     9044 1
    9354     8967     9045 1
    9355     8968     8969 1
    9356     8968     9046 1
    9357     8968     9047 1
    9358     8969     8970 1
    9359     8969     9048 1
    9360     8969     9049 1
    9361     8970     9050 1
    9362     8970     9051 1
    9363     8970     9052 1
    9364     9053     9054 1
    9365     9053     9060 1
    9366     9053     9096 1
    9367     9054     9055 1
    9368     9054     9058 1
    9369     9055     9056 1
    9370     9055     9059 1
    9371     9056     9057 1
    9372     9057     9058 1
    9373     9057     9068 1
    9374     9058     9064 1
    9375     9059     9060 1
    9376     9059     9063 1
    9377     9060     9061 1
    9378     9061     9062 1
    9379     9061     9065 1
    9380     9062     9063 1
    9381     9066     9067 1
    9382     9066     9074 1
    9383     9067     9068 1
    9384     9067     9075 1
    9385     9068     9069 1
    9386     9069     9070 1
    9387     9069     9073 1
    9388     9070     9071 1
    9389     9071     9072 1
    9390     9072     9073 1
    9391     9073     9074 1
    9392     9074     9208 1
    9393     9076     9077 1
    9394     9076     9117 1
    9395     9076     9118 1
    9396     9076     9119 1
    9397     9077     9078 1
    9398     9077     9120 1
    9399     9077     9121 1
    9400     9078     9079 1
    9401     9078     9122 1
    9402     9078     9123 1
    9403     9079     9080 1
    9404     9079     9124 1
    9405     9079     9125 1
    9406     9080     9081 1
    9407     9080     9126 1
    9408     9080     9127 1
    9409     9081     9082 1
    9410     9081     9128 1
    9411     9081     9129 1
    9412     9082     9083 1
    9413     9082     9130 1
    9414     9082     9131 1
    9415     9083     9084 1
    9416     9083     9132 1
    9417     9083     9133 1
    9418     9084     9085 1
    9419     9084     9134 1
    9420     9084     9135 1
    9421     9085     9086 1
    9422     9085     9136 1
    9423     9085     9137 1
    9424     9086     9087 1
    9425     9086     9095 1
    9426     9086     9138 1
    9427     9087     9088 1
    9428     9087     9139 1
    9429     9087     9140 1
    9430     9088     9089 1
    9431     9088     9141 1
    9432     9088     9142 1
    9433     9089     9090 1
    9434     9089     9143 1
    9435     9089     9144 1
    9436     9090     9091 1
    9437     9090     9145 1
    9438     9090     9146 1
    9439     9091     9092 1
    9440     9091     9147 1
    9441     9091     9148 1
    9442     9092     9093 1
    9443     9092     9149 1
    9444     9092     9150 1
    9445     9093     9094 1
    9446     9093     9151 1
    9447     9093     9152 1
    9448     9094     9153 1
    9449     9094     9154 1
    9450     9094     9155 1
    9451     9095     9096 1
    9452     9095     9156 1
    9453     9095     9157 1
    9454     9096     9097 1
    9455     9097     9098 1
    9456     9097     9158 1
    9457     9097     9159 1
    9458     9098     9099 1
    9459     9098     9107 1
    9460     9098     9160 1
    9461     9099     9100 1
    9462     9099     9161 1
    9463     9099     9162 1
    9464     9100     9101 1
    9465     9100     9163 1
    9466     9100     9164 1
    9467     9101     9102 1
    9468     9101     9165 1
    9469     9101     9166 1
    9470     9102     9103 1
    9471     9102     9167 1
    9472     9102     9168 1
    9473     9103     9104 1
    9474     9103     9169 1
    9475     9103     9170 1
    9476     9104     9105 1
    9477     9104     9171 1
    9478     9104     9172 1
    9479     9105     9106 1
    9480     9105     9173 1
    9481     9105     9174 1
    9482     9106     9175 1
    9483     9106     9176 1
    9484     9106     9177 1
    9485     9107     9108 1
    9486     9107     9178 1
    9487     9107     9179 1
    9488     9108     9109 1
    9489     9108     9180 1
    9490     9108     9181 1
    9491     9109     9110 1
    9492     9109     9182 1
    9493     9109     9183 1
    9494     9110     9111 1
    9495     9110     9184 1
    9496     9110     9185 1
    9497     9111     9112 1
    9498     9111     9186 1
    9499     9111     9187 1
    9500     9112     9113 1
    9501     9112     9188 1
    9502     9112     9189 1
    9503     9113     9114 1
    9504     9113     9190 1
    9505     9113     9191 1
    9506     9114     9115 1
    9507     9114     9192 1
    9508     9114     9193 1
    9509     9115     9116 1
    9510     9115     9194 1
    9511     9115     9195 1
    9512     9116     9196 1
    9513     9116     9197 1
    9514     9116     9198 1
    9515     9199     9200 1
    9516     9199     9206 1
    9517     9199     9242 1
    9518     9200     9201 1
    9519     9200     9204 1
    9520     9201     9202 1
    9521     9201     9205 1
    9522     9202     9203 1
    9523     9203     9204 1
    9524     9203     9214 1
    9525     9204     9210 1
    9526     9205     9206 1
    9527     9205     9209 1
    9528     9206     9207 1
    9529     9207     9208 1
    9530     9207     9211 1
    9531     9208     9209 1
    9532     9212     9213 1
    9533     9212     9220 1
    9534     9213     9214 1
    9535     9213     9221 1
    9536     9214     9215 1
    9537     9215     9216 1
    9538     9215     9219 1
    9539     9216     9217 1
    9540     9217     9218 1
    9541     9218     9219 1
    9542     9219     9220 1
    9543     9220     9354 1
    9544     9222     9223 1
    9545     9222     9263 1
    9546     9222     9264 1
    9547     9222     9265 1
    9548     9223     9224 1
    9549     9223     9266 1
    9550     9223     9267 1
    9551     9224     9225 1
    9552     9224     9268 1
    9553     9224     9269 1
    9554     9225     9226 1
    9555     9225     9270 1
    9556     9225     9271 1
    9557     9226     9227 1
    9558     9226     9272 1
    9559     9226     9273 1
    9560     9227     9228 1
    9561     9227     9274 1
    9562     9227     9275 1
    9563     9228     9229 1
    9564     9228     9276 1
    9565     9228     9277 1
    9566     9229     9230 1
    9567     9229     9278 1
    9568     9229     9279 1
    9569     9230     9231 1
    9570     9230     9280 1
    9571     9230     9281 1
    9572     9231     9232 1
    9573     9231     9282 1
    9574     9231     9283 1
    9575     9232     9233 1
    9576     9232     9241 1
    9577     9232     9284 1
    9578     9233     9234 1
    9579     9233     9285 1
    9580     9233     9286 1
    9581     9234     9235 1
    9582     9234     9287 1
    9583     9234     9288 1
    9584     9235     9236 1
    9585     9235     9289 1
    9586     9235     9290 1
    9587     9236     9237 1
    9588     9236     9291 1
    9589     9236     9292 1
    9590     9237     9238 1
    9591     9237     9293 1
    9592     9237     9294 1
    9593     9238     9239 1
    9594     9238     9295 1
    9595     9238     9296 1
    9596     9239     9240 1
    9597     9239     9297 1
    9598     9239     9298 1
    9599     9240     9299 1
    9600     9240     9300 1
    9601     9240     9301 1
    9602     9241     9242 1
    9603     9241     9302 1
    9604     9241     9303 1
    9605     9242     9243 1
    9606     9243     9244 1
    9607     9243     9304 1
    9608     9243     9305 1
    9609     9244     9245 1
    9610     9244     9253 1
    9611     9244     9306 1
    9612     9245     9246 1
    9613     9245     9307 1
    9614     9245     9308 1
    9615     9246     9247 1
    9616     9246     9309 1
    9617     9246     9310 1
    9618     9247     9248 1
    9619     9247     9311 1
    9620     9247     9312 1
    9621     9248     9249 1
    9622     9248     9313 1
    9623     9248     9314 1
    9624     9249     9250 1
    9625     9249     9315 1
    9626     9249     9316 1
    9627     9250     9251 1
    9628     9250     9317 1
    9629     9250     9318 1
    9630     9251     9252 1
    9631     9251     9319 1
    9632     9251     9320 1
    9633     9252     9321 1
    9634     9252     9322 1
    9635     9252     9323 1
    9636     9253     9254 1
    9637     9253     9324 1
    9638     9253     9325 1
    9639     9254     9255 1
    9640     9254     9326 1
    9641     9254     9327 1
    9642     9255     9256 1
    9643     9255     9328 1
    9644     9255     9329 1
    9645     9256     9257 1
    9646     9256     9330 1
    9647     9256     9331 1
    9648     9257     9258 1
    9649     9257     9332 1
    9650     9257     9333 1
    9651     9258     9259 1
    9652     9258     9334 1
    9653     9258     9335 1
    9654     9259     9260 1
    9655     9259     9336 1
    9656     9259     9337 1
    9657     9260     9261 1
    9658     9260     9338 1
    9659     9260     9339 1
    9660     9261     9262 1
    9661     9261     9340 1
    9662     9261     9341 1
    9663     9262     9342 1
    9664     9262     9343 1
    9665     9262     9344 1
    9666     9345     9346 1
    9667     9345     9352 1
    9668     9345     9388 1
    9669     9346     9347 1
    9670     9346     9350 1
    9671     9347     9348 1
    9672     9347     9351 1
    9673     9348     9349 1
    9674     9349     9350 1
    9675     9349     9360 1
    9676     9350     9356 1
    9677     9351     9352 1
    9678     9351     9355 1
    9679     9352     9353 1
    9680     9353     9354 1
    9681     9353     9357 1
    9682     9354     9355 1
    9683     9358     9359 1
    9684     9358     9366 1
    9685     9359     9360 1
    9686     9359     9367 1
    9687     9360     9361 1
    9688     9361     9362 1
    9689     9361     9365 1
    9690     9362     9363 1
    9691     9363     9364 1
    9692     9364     9365 1
    9693     9365     9366 1
    9694     9366     9500 1
    9695     9368     9369 1
    9696     9368     9409 1
    9697     9368     9410 1
    9698     9368     9411 1
    9699     9369     9370 1
    9700     9369     9412 1
    9701     9369     9413 1
    9702     9370     9371 1
    9703     9370     9414 1
    9704     9370     9415 1
    9705     9371     9372 1
    9706     9371     9416 1
    9707     9371     9417 1
    9708     9372     9373 1
    9709     9372     9418 1
    9710     9372     9419 1
    9711     9373     9374 1
    9712     9373     9420 1
    9713     9373     9421 1
    9714     9374     9375 1
    9715     9374     9422 1
    9716     9374     9423 1
    9717     9375     9376 1
    9718     9375     9424 1
    9719     9375     9425 1
    9720     9376     9377 1
    9721     9376     9426 1
    9722     9376     9427 1
    9723     9377     9378 1
    9724     9377     9428 1
    9725     9377     9429 1
    9726     9378     9379 1
    9727     9378     9387 1
    9728     9378     9430 1
    9729     9379     9380 1
    9730     9379     9431 1
    9731     9379     9432 1
    9732     9380     9381 1
    9733     9380     9433 1
    9734     9380     9434 1
    9735     9381     9382 1
    9736     9381     9435 1
    9737     9381     9436 1
    9738     9382     9383 1
    9739     9382     9437 1
    9740     9382     9438 1
    9741     9383     9384 1
    9742     9383     9439 1
    9743     9383     9440 1
    9744     9384     9385 1
    9745     9384     9441 1
    9746     9384     9442 1
    9747     9385     9386 1
    9748     9385     9443 1
    9749     9385     9444 1
    9750     9386     9445 1
    9751     9386     9446 1
    9752     9386     9447 1
    9753     9387     9388 1
    9754     9387     9448 1
    9755     9387     9449 1
    9756     9388     9389 1
    9757     9389     9390 1
    9758     9389     9450 1
    9759     9389     9451 1
    9760     9390     9391 1
    9761     9390     9399 1
    9762     9390     9452 1
    9763     9391     9392 1
    9764     9391     9453 1
    9765     9391     9454 1
    9766     9392     9393 1
    9767     9392     9455 1
    9768     9392     9456 1
    9769     9393     9394 1
    9770     9393     9457 1
    9771     9393     9458 1
    9772     9394     9395 1
    9773     9394     9459 1
    9774     9394     9460 1
    9775     9395     9396 1
    9776     9395     9461 1
    9777     9395     9462 1
    9778     9396     9397 1
    9779     9396     9463 1
    9780     9396     9464 1
    9781     9397     9398 1
    9782     9397     9465 1
    9783     9397     9466 1
    9784     9398     9467 1
    9785     9398     9468 1
    9786     9398     9469 1
    9787     9399     9400 1
    9788     9399     9470 1
    9789     9399     9471 1
    9790     9400     9401 1
    9791     9400     9472 1
    9792     9400     9473 1
    9793     9401     9402 1
    9794     9401     9474 1
    9795     9401     9475 1
    9796     9402     9403 1
    9797     9402     9476 1
    9798     9402     9477 1
    9799     9403     9404 1
    9800     9403     9478 1
    9801     9403     9479 1
    9802     9404     9405 1
    9803     9404     9480 1
    9804     9404     9481 1
    9805     9405     9406 1
    9806     9405     9482 1
    9807     9405     9483 1
    9808     9406     9407 1
    9809     9406     9484 1
    9810     9406     9485 1
    9811     9407     9408 1
    9812     9407     9486 1
    9813     9407     9487 1
    9814     9408     9488 1
    9815     9408     9489 1
    9816     9408     9490 1
    9817     9491     9492 1
    9818     9491     9498 1
    9819     9491     9534 1
    9820     9492     9493 1
    9821     9492     9496 1
    9822     9493     9494 1
    9823     9493     9497 1
    9824     9494     9495 1
    9825     9495     9496 1
    9826     9495     9506 1
    9827     9496     9502 1
    9828     9497     9498 1
    9829     9497     9501 1
    9830     9498     9499 1
    9831     9499     9500 1
    9832     9499     9503 1
    9833     9500     9501 1
    9834     9504     9505 1
    9835     9504     9512 1
    9836     9505     9506 1
    9837     9505     9513 1
    9838     9506     9507 1
    9839     9507     9508 1
    9840     9507     9511 1
    9841     9508     9509 1
    9842     9509     9510 1
    9843     9510     9511 1
    9844     9511     9512 1
    9845     9512     9646 1
    9846     9514     9515 1
    9847     9514     9555 1
    9848     9514     9556 1
    9849     9514     9557 1
    9850     9515     9516 1
    9851     9515     9558 1
    9852     9515     9559 1
    9853     9516     9517 1
    9854     9516     9560 1
    9855     9516     9561 1
    9856     9517     9518 1
    9857     9517     9562 1
    9858     9517     9563 1
    9859     9518     9519 1
    9860     9518     9564 1
    9861     9518     9565 1
    9862     9519     9520 1
    9863     9519     9566 1
    9864     9519     9567 1
    9865     9520     9521 1
    9866     9520     9568 1
    9867     9520     9569 1
    9868     9521     9522 1
    9869     9521     9570 1
    9870     9521     9571 1
    9871     9522     9523 1
    9872     9522     9572 1
    9873     9522     9573 1
    9874     9523     9524 1
    9875     9523     9574 1
    9876     9523     9575 1
    9877     9524     9525 1
    9878     9524     9533 1
    9879     9524     9576 1
    9880     9525     9526 1
    9881     9525     9577 1
    9882     9525     9578 1
    9883     9526     9527 1
    9884     9526     9579 1
    9885     9526     9580 1
    9886     9527     9528 1
    9887     9527     9581 1
    9888     9527     9582 1
    9889     9528     9529 1
    9890     9528     9583 1
    9891     9528     9584 1
    9892     9529     9530 1
    9893     9529     9585 1
    9894     9529     9586 1
    9895     9530     9531 1
    9896     9530     9587 1
    9897     9530     9588 1
    9898     9531     9532 1
    9899     9531     9589 1
    9900     9531     9590 1
    9901     9532     9591 1
    9902     9532     9592 1
    9903     9532     9593 1
    9904     9533     9534 1
    9905     9533     9594 1
    9906     9533     9595 1
    9907     9534     9535 1
    9908     9535     9536 1
    9909     9535     9596 1
    9910     9535     9597 1
    9911     9536     9537 1
    9912     9536     9545 1
    9913     9536     9598 1
    9914     9537     9538 1
    9915     9537     9599 1
    9916     9537     9600 1
    9917     9538     9539 1
    9918     9538     9601 1
    9919     9538     9602 1
    9920     9539     9540 1
    9921     9539     9603 1
    9922     9539     9604 1
    9923     9540     9541 1
    9924     9540     9605 1
    9925     9540     9606 1
    9926     9541     9542 1
    9927     9541     9607 1
    9928     9541     9608 1
    9929     9542     9543 1
    9930     9542     9609 1
    9931     9542     9610 1
    9932     9543     9544 1
    9933     9543     9611 1
    9934     9543     9612 1
    9935     9544     9613 1
    9936     9544     9614 1
    9937     9544     9615 1
    9938     9545     9546 1
    9939     9545     9616 1
    9940     9545     9617 1
    9941     9546     9547 1
    9942     9546     9618 1
    9943     9546     9619 1
    9944     9547     9548 1
    9945     9547     9620 1
    9946     9547     9621 1
    9947     9548     9549 1
    9948     9548     9622 1
    9949     9548     9623 1
    9950     9549     9550 1
    9951     9549     9624 1
    9952     9549     9625 1
    9953     9550     9551 1
    9954     9550     9626 1
    9955     9550     9627 1
    9956     9551     9552 1
    9957     9551     9628 1
    9958     9551     9629 1
    9959     9552     9553 1
    9960     9552     9630 1
    9961     9552     9631 1
    9962     9553     9554 1
    9963     9553     9632 1
    9964     9553     9633 1
    9965     9554     9634 1
    9966     9554     9635 1
    9967     9554     9636 1
    9968     9637     9638 1
    9969     9637     9644 1
    9970     9637     9680 1
    9971     9638     9639 1
    9972     9638     9642 1
    9973     9639     9640 1
    9974     9639     9643 1
    9975     9640     9641 1
    9976     9641     9642 1
    9977     9641     9652 1
    9978     9642     9648 1
    9979     9643     9644 1
    9980     9643     9647 1
    9981     9644     9645 1
    9982     9645     9646 1
    9983     9645     9649 1
    9984     9646     9647 1
    9985     9650     9651 1
    9986     9650     9658 1
    9987     9651     9652 1
    9988     9651     9659 1
    9989     9652     9653 1
    9990     9653     9654 1
    9991     9653     9657 1
    9992     9654     9655 1
    9993     9655     9656 1
    9994     9656     9657 1
    9995     9657     9658 1
    9996     9658     9792 1
    9997     9660     9661 1
    9998     9660     9701 1
    9999     9660     9702 1
   10000     9660     9703 1
   10001     9661     9662 1
   10002     9661     9704 1
   10003     9661     9705 1
   10004     9662     9663 1
   10005     9662     9706 1
   10006     9662     9707 1
   10007     9663     9664 1
   10008     9663     9708 1
   10009     9663     9709 1
   10010     9664     9665 1
   10011     9664     9710 1
   10012     9664     9711 1
   10013     9665     9666 1
   10014     9665     9712 1
   10015     9665     9713 1
   10016     9666     9667 1
   10017     9666     9714 1
   10018     9666     9715 1
   10019     9667     9668 1
   10020     9667     9716 1
   10021     9667     9717 1
   10022     9668     9669 1
   10023     9668     9718 1
   10024     9668     9719 1
   10025     9669     9670 1
   10026     9669     9720 1
   10027     9669     9721 1
   10028     9670     9671 1
   10029     9670     9679 1
   10030     9670     9722 1
   10031     9671     9672 1
   10032     9671     9723 1
   10033     9671     9724 1
   10034     9672     9673 1
   10035     9672     9725 1
   10036     9672     9726 1
   10037     9673     9674 1
   10038     9673     9727 1
   10039     9673     9728 1
   10040     9674     9675 1
   10041     9674     9729 1
   10042     9674     9730 1
   10043     9675     9676 1
   10044     9675     9731 1
   10045     9675     9732 1
   10046     9676     9677 1
   10047     9676     9733 1
   10048     9676     9734 1
   10049     9677     9678 1
   10050     9677     9735 1
   10051     9677     9736 1
   10052     9678     9737 1
   10053     9678     9738 1
   10054     9678     9739 1
   10055     9679     9680 1
   10056     9679     9740 1
   10057     9679     9741 1
   10058     9680     9681 1
   10059     9681     9682 1
   10060     9681     9742 1
   10061     9681     9743 1
   10062     9682     9683 1
   10063     9682     9691 1
   10064     9682     9744 1
   10065     9683     9684 1
   10066     9683     9745 1
   10067     9683     9746 1
   10068     9684     9685 1
   10069     9684     9747 1
   10070     9684     9748 1
   10071     9685     9686 1
   10072     9685     9749 1
   10073     9685     9750 1
   10074     9686     9687 1
   10075     9686     9751 1
   10076     9686     9752 1
   10077     9687     9688 1
   10078     9687     9753 1
   10079     9687     9754 1
   10080     9688     9689 1
   10081     9688     9755 1
   10082     9688     9756 1
   10083     9689     9690 1
   10084     9689     9757 1
   10085     9689     9758 1
   10086     9690     9759 1
   10087     9690     9760 1
   10088     9690     9761 1
   10089     9691     9692 1
   10090     9691     9762 1
   10091     9691     9763 1
   10092     9692     9693 1
   10093     9692     9764 1
   10094     9692     9765 1
   10095     9693     9694 1
   10096     9693     9766 1
   10097     9693     9767 1
   10098     9694     9695 1
   10099     9694     9768 1
   10100     9694     9769 1
   10101     9695     9696 1
   10102     9695     9770 1
   10103     9695     9771 1
   10104     9696     9697 1
   10105     9696     9772 1
   10106     9696     9773 1
   10107     9697     9698 1
   10108     9697     9774 1
   10109     9697     9775 1
   10110     9698     9699 1
   10111     9698     9776 1
   10112     9698     9777 1
   10113     9699     9700 1
   10114     9699     9778 1
   10115     9699     9779 1
   10116     9700     9780 1
   10117     9700     9781 1
   10118     9700     9782 1
   10119     9783     9784 1
   10120     9783     9790 1
   10121     9783     9826 1
   10122     9784     9785 1
   10123     9784     9788 1
   10124     9785     9786 1
   10125     9785     9789 1
   10126     9786     9787 1
   10127     9787     9788 1
   10128     9787     9798 1
   10129     9788     9794 1
   10130     9789     9790 1
   10131     9789     9793 1
   10132     9790     9791 1
   10133     9791     9792 1
   10134     9791     9795 1
   10135     9792     9793 1
   10136     9796     9797 1
   10137     9796     9804 1
   10138     9797     9798 1
   10139     9797     9805 1
   10140     9798     9799 1
   10141     9799     9800 1
   10142     9799     9803 1
   10143     9800     9801 1
   10144     9801     9802 1
   10145     9802     9803 1
   10146     9803     9804 1
   10147     9804     9938 1
   10148     9806     9807 1
   10149     9806     9847 1
   10150     9806     9848 1
   10151     9806     9849 1
   10152     9807     9808 1
   10153     9807     9850 1
   10154     9807     9851 1
   10155     9808     9809 1
   10156     9808     9852 1
   10157     9808     9853 1
   10158     9809     9810 1
   10159     9809     9854 1
   10160     9809     9855 1
   10161     9810     9811 1
   10162     9810     9856 1
   10163     9810     9857 1
   10164     9811     9812 1
   10165     9811     9858 1
   10166     9811     9859 1
   10167     9812     9813 1
   10168     9812     9860 1
   10169     9812     9861 1
   10170     9813     9814 1
   10171     9813     9862 1
   10172     9813     9863 1
   10173     9814     9815 1
   10174     9814     9864 1
   10175     9814     9865 1
   10176     9815     9816 1
   10177     9815     9866 1
   10178     9815     9867 1
   10179     9816     9817 1
   10180     9816     9825 1
   10181     9816     9868 1
   10182     9817     9818 1
   10183     9817     9869 1
   10184     9817     9870 1
   10185     9818     9819 1
   10186     9818     9871 1
   10187     9818     9872 1
   10188     9819     9820 1
   10189     9819     9873 1
   10190     9819     9874 1
   10191     9820     9821 1
   10192     9820     9875 1
   10193     9820     9876 1
   10194     9821     9822 1
   10195     9821     9877 1
   10196     9821     9878 1
   10197     9822     9823 1
   10198     9822     9879 1
   10199     9822     9880 1
   10200     9823     9824 1
   10201     9823     9881 1
   10202     9823     9882 1
   10203     9824     9883 1
   10204     9824     9884 1
   10205     9824     9885 1
   10206     9825     9826 1
   10207     9825     9886 1
   10208     9825     9887 1
   10209     9826     9827 1
   10210     9827     9828 1
   10211     9827     9888 1
   10212     9827     9889 1
   10213     9828     9829 1
   10214     9828     9837 1
   10215     9828     9890 1
   10216     9829     9830 1
   10217     9829     9891 1
   10218     9829     9892 1
   10219     9830     9831 1
   10220     9830     9893 1
   10221     9830     9894 1
   10222     9831     9832 1
   10223     9831     9895 1
   10224     9831     9896 1
   10225     9832     9833 1
   10226     9832     9897 1
   10227     9832     9898 1
   10228     9833     9834 1
   10229     9833     9899 1
   10230     9833     9900 1
   10231     9834     9835 1
   10232     9834     9901 1
   10233     9834     9902 1
   10234     9835     9836 1
   10235     9835     9903 1
   10236     9835     9904 1
   10237     9836     9905 1
   10238     9836     9906 1
   10239     9836     9907 1
   10240     9837     9838 1
   10241     9837     9908 1
   10242     9837     9909 1
   10243     9838     9839 1
   10244     9838     9910 1
   10245     9838     9911 1
   10246     9839     9840 1
   10247     9839     9912 1
   10248     9839     9913 1
   10249     9840     9841 1
   10250     9840     9914 1
   10251     9840     9915 1
   10252     9841     9842 1
   10253     9841     9916 1
   10254     9841     9917 1
   10255     9842     9843 1
   10256     9842     9918 1
   10257     9842     9919 1
   10258     9843     9844 1
   10259     9843     9920 1
   10260     9843     9921 1
   10261     9844     9845 1
   10262     9844     9922 1
   10263     9844     9923 1
   10264     9845     9846 1
   10265     9845     9924 1
   10266     9845     9925 1
   10267     9846     9926 1
   10268     9846     9927 1
   10269     9846     9928 1
   10270     9929     9930 1
   10271     9929     9936 1
   10272     9929     9972 1
   10273     9930     9931 1
   10274     9930     9934 1
   10275     9931     9932 1
   10276     9931     9935 1
   10277     9932     9933 1
   10278     9933     9934 1
   10279     9933     9944 1
   10280     9934     9940 1
   10281     9935     9936 1
   10282     9935     9939 1
   10283     9936     9937 1
   10284     9937     9938 1
   10285     9937     9941 1
   10286     9938     9939 1
   10287     9942     9943 1
   10288     9942     9950 1
   10289     9943     9944 1
   10290     9943     9951 1
   10291     9944     9945 1
   10292     9945     9946 1
   10293     9945     9949 1
   10294     9946     9947 1
   10295     9947     9948 1
   10296     9948     9949 1
   10297     9949     9950 1
   10298     9950    10084 1
   10299     9952     9953 1
   10300     9952     9993 1
   10301     9952     9994 1
   10302     9952     9995 1
   10303     9953     9954 1
   10304     9953     9996 1
   10305     9953     9997 1
   10306     9954     9955 1
   10307     9954     9998 1
   10308     9954     9999 1
   10309     9955     9956 1
   10310     9955    10000 1
   10311     9955    10001 1
   10312     9956     9957 1
   10313     9956    10002 1
   10314     9956    10003 1
   10315     9957     9958 1
   10316     9957    10004 1
   10317     9957    10005 1
   10318     9958     9959 1
   10319     9958    10006 1
   10320     9958    10007 1
   10321     9959     9960 1
   10322     9959    10008 1
   10323     9959    10009 1
   10324     9960     9961 1
   10325     9960    10010 1
   10326     9960    10011 1
   10327     9961     9962 1
   10328     9961    10012 1
   10329     9961    10013 1
   10330     9962     9963 1
   10331     9962     9971 1
   10332     9962    10014 1
   10333     9963     9964 1
   10334     9963    10015 1
   10335     9963    10016 1
   10336     9964     9965 1
   10337     9964    10017 1
   10338     9964    10018 1
   10339     9965     9966 1
   10340     9965    10019 1
   10341     9965    10020 1
   10342     9966     9967 1
   10343     9966    10021 1
   10344     9966    10022 1
   10345     9967     9968 1
   10346     9967    10023 1
   10347     9967    10024 1
   10348     9968     9969 1
   10349     9968    10025 1
   10350     9968    10026 1
   10351     9969     9970 1
   10352     9969    10027 1
   10353     9969    10028 1
   10354     9970    10029 1
   10355     9970    10030 1
   10356     9970    10031 1
   10357     9971     9972 1
   10358     9971    10032 1
   10359     9971    10033 1
   10360     9972     9973 1
   10361     9973     9974 1
   10362     9973    10034 1
   10363     9973    10035 1
   10364     9974     9975 1
   10365     9974     9983 1
   10366     9974    10036 1
   10367     9975     9976 1
   10368     9975    10037 1
   10369     9975    10038 1
   10370     9976     9977 1
   10371     9976    10039 1
   10372     9976    10040 1
   10373     9977     9978 1
   10374     9977    10041 1
   10375     9977    10042 1
   10376     9978     9979 1
   10377     9978    10043 1
   10378     9978    10044 1
   10379     9979     9980 1
   10380     9979    10045 1
   10381     9979    10046 1
   10382     9980     9981 1
   10383     9980    10047 1
   10384     9980    10048 1
   10385     9981     9982 1
   10386     9981    10049 1
   10387     9981    10050 1
   10388     9982    10051 1
   10389     9982    10052 1
   10390     9982    10053 1
   10391     9983     9984 1
   10392     9983    10054 1
   10393     9983    10055 1
   10394     9984     9985 1
   10395     9984    10056 1
   10396     9984    10057 1
   10397     9985     9986 1
   10398     9985    10058 1
   10399     9985    10059 1
   10400     9986     9987 1
   10401     9986    10060 1
   10402     9986    10061 1
   10403     9987     9988 1
   10404     9987    10062 1
   10405     9987    10063 1
   10406     9988     9989 1
   10407     9988    10064 1
   10408     9988    10065 1
   10409     9989     9990 1
   10410     9989    10066 1
   10411     9989    10067 1
   10412     9990     9991 1
   10413     9990    10068 1
   10414     9990    10069 1
   10415     9991     9992 1
   10416     9991    10070 1
   10417     9991    10071 1
   10418     9992    10072 1
   10419     9992    10073 1
   10420     9992    10074 1
   10421    10075    10076 1
   10422    10075    10082 1
   10423    10075    10118 1
   10424    10076    10077 1
   10425    10076    10080 1
   10426    10077    10078 1
   10427    10077    10081 1
   10428    10078    10079 1
   10429    10079    10080 1
   10430    10079    10090 1
   10431    10080    10086 1
   10432    10081    10082 1
   10433    10081    10085 1
   10434    10082    10083 1
   10435    10083    10084 1
   10436    10083    10087 1
   10437    10084    10085 1
   10438    10088    10089 1
   10439    10088    10096 1
   10440    10089    10090 1
   10441    10089    10097 1
   10442    10090    10091 1
   10443    10091    10092 1
   10444    10091    10095 1
   10445    10092    10093 1
   10446    10093    10094 1
   10447    10094    10095 1
   10448    10095    10096 1
   10449    10096    10230 1
   10450    10098    10099 1
   10451    10098    10139 1
   10452    10098    10140 1
   10453    10098    10141 1
   10454    10099    10100 1
   10455    10099    10142 1
   10456    10099    10143 1
   10457    10100    10101 1
   10458    10100    10144 1
   10459    10100    10145 1
   10460    10101    10102 1
   10461    10101    10146 1
   10462    10101    10147 1
   10463    10102    10103 1
   10464    10102    10148 1
   10465    10102    10149 1
   10466    10103    10104 1
   10467    10103    10150 1
   10468    10103    10151 1
   10469    10104    10105 1
   10470    10104    10152 1
   10471    10104    10153 1
   10472    10105    10106 1
   10473    10105    10154 1
   10474    10105    10155 1
   10475    10106    10107 1
   10476    10106    10156 1
   10477    10106    10157 1
   10478    10107    10108 1
   10479    10107    10158 1
   10480    10107    10159 1
   10481    10108    10109 1
   10482    10108    10117 1
   10483    10108    10160 1
   10484    10109    10110 1
   10485    10109    10161 1
   10486    10109    10162 1
   10487    10110    10111 1
   10488    10110    10163 1
   10489    10110    10164 1
   10490    10111    10112 1
   10491    10111    10165 1
   10492    10111    10166 1
   10493    10112    10113 1
   10494    10112    10167 1
   10495    10112    10168 1
   10496    10113    10114 1
   10497    10113    10169 1
   10498    10113    10170 1
   10499    10114    10115 1
   10500    10114    10171 1
   10501    10114    10172 1
   10502    10115    10116 1
   10503    10115    10173 1
   10504    10115    10174 1
   10505    10116    10175 1
   10506    10116    10176 1
   10507    10116    10177 1
   10508    10117    10118 1
   10509    10117    10178 1
   10510    10117    10179 1
   10511    10118    10119 1
   10512    10119    10120 1
   10513    10119    10180 1
   10514    10119    10181 1
   10515    10120    10121 1
   10516    10120    10129 1
   10517    10120    10182 1
   10518    10121    10122 1
   10519    10121    10183 1
   10520    10121    10184 1
   10521    10122    10123 1
   10522    10122    10185 1
   10523    10122    10186 1
   10524    10123    10124 1
   10525    10123    10187 1
   10526    10123    10188 1
   10527    10124    10125 1
   10528    10124    10189 1
   10529    10124    10190 1
   10530    10125    10126 1
   10531    10125    10191 1
   10532    10125    10192 1
   10533    10126    10127 1
   10534    10126    10193 1
   10535    10126    10194 1
   10536    10127    10128 1
   10537    10127    10195 1
   10538    10127    10196 1
   10539    10128    10197 1
   10540    10128    10198 1
   10541    10128    10199 1
   10542    10129    10130 1
   10543    10129    10200 1
   10544    10129    10201 1
   10545    10130    10131 1
   10546    10130    10202 1
   10547    10130    10203 1
   10548    10131    10132 1
   10549    10131    10204 1
   10550    10131    10205 1
   10551    10132    10133 1
   10552    10132    10206 1
   10553    10132    10207 1
   10554    10133    10134 1
   10555    10133    10208 1
   10556    10133    10209 1
   10557    10134    10135 1
   10558    10134    10210 1
   10559    10134    10211 1
   10560    10135    10136 1
   10561    10135    10212 1
   10562    10135    10213 1
   10563    10136    10137 1
   10564    10136    10214 1
   10565    10136    10215 1
   10566    10137    10138 1
   10567    10137    10216 1
   10568    10137    10217 1
   10569    10138    10218 1
   10570    10138    10219 1
   10571    10138    10220 1
   10572    10221    10222 1
   10573    10221    10228 1
   10574    10221    10264 1
   10575    10222    10223 1
   10576    10222    10226 1
   10577    10223    10224 1
   10578    10223    10227 1
   10579    10224    10225 1
   10580    10225    10226 1
   10581    10225    10236 1
   10582    10226    10232 1
   10583    10227    10228 1
   10584    10227    10231 1
   10585    10228    10229 1
   10586    10229    10230 1
   10587    10229    10233 1
   10588    10230    10231 1
   10589    10234    10235 1
   10590    10234    10242 1
   10591    10235    10236 1
   10592    10235    10243 1
   10593    10236    10237 1
   10594    10237    10238 1
   10595    10237    10241 1
   10596    10238    10239 1
   10597    10239    10240 1
   10598    10240    10241 1
   10599    10241    10242 1
   10600    10242    10376 1
   10601    10244    10245 1
   10602    10244    10285 1
   10603    10244    10286 1
   10604    10244    10287 1
   10605    10245    10246 1
   10606    10245    10288 1
   10607    10245    10289 1
   10608    10246    10247 1
   10609    10246    10290 1
   10610    10246    10291 1
   10611    10247    10248 1
   10612    10247    10292 1
   10613    10247    10293 1
   10614    10248    10249 1
   10615    10248    10294 1
   10616    10248    10295 1
   10617    10249    10250 1
   10618    10249    10296 1
   10619    10249    10297 1
   10620    10250    10251 1
   10621    10250    10298 1
   10622    10250    10299 1
   10623    10251    10252 1
   10624    10251    10300 1
   10625    10251    10301 1
   10626    10252    10253 1
   10627    10252    10302 1
   10628    10252    10303 1
   10629    10253    10254 1
   10630    10253    10304 1
   10631    10253    10305 1
   10632    10254    10255 1
   10633    10254    10263 1
   10634    10254    10306 1
   10635    10255    10256 1
   10636    10255    10307 1
   10637    10255    10308 1
   10638    10256    10257 1
   10639    10256    10309 1
   10640    10256    10310 1
   10641    10257    10258 1
   10642    10257    10311 1
   10643    10257    10312 1
   10644    10258    10259 1
   10645    10258    10313 1
   10646    10258    10314 1
   10647    10259    10260 1
   10648    10259    10315 1
   10649    10259    10316 1
   10650    10260    10261 1
   10651    10260    10317 1
   10652    10260    10318 1
   10653    10261    10262 1
   10654    10261    10319 1
   10655    10261    10320 1
   10656    10262    10321 1
   10657    10262    10322 1
   10658    10262    10323 1
   10659    10263    10264 1
   10660    10263    10324 1
   10661    10263    10325 1
   10662    10264    10265 1
   10663    10265    10266 1
   10664    10265    10326 1
   10665    10265    10327 1
   10666    10266    10267 1
   10667    10266    10275 1
   10668    10266    10328 1
   10669    10267    10268 1
   10670    10267    10329 1
   10671    10267    10330 1
   10672    10268    10269 1
   10673    10268    10331 1
   10674    10268    10332 1
   10675    10269    10270 1
   10676    10269    10333 1
   10677    10269    10334 1
   10678    10270    10271 1
   10679    10270    10335 1
   10680    10270    10336 1
   10681    10271    10272 1
   10682    10271    10337 1
   10683    10271    10338 1
   10684    10272    10273 1
   10685    10272    10339 1
   10686    10272    10340 1
   10687    10273    10274 1
   10688    10273    10341 1
   10689    10273    10342 1
   10690    10274    10343 1
   10691    10274    10344 1
   10692    10274    10345 1
   10693    10275    10276 1
   10694    10275    10346 1
   10695    10275    10347 1
   10696    10276    10277 1
   10697    10276    10348 1
   10698    10276    10349 1
   10699    10277    10278 1
   10700    10277    10350 1
   10701    10277    10351 1
   10702    10278    10279 1
   10703    10278    10352 1
   10704    10278    10353 1
   10705    10279    10280 1
   10706    10279    10354 1
   10707    10279    10355 1
   10708    10280    10281 1
   10709    10280    10356 1
   10710    10280    10357 1
   10711    10281    10282 1
   10712    10281    10358 1
   10713    10281    10359 1
   10714    10282    10283 1
   10715    10282    10360 1
   10716    10282    10361 1
   10717    10283    10284 1
   10718    10283    10362 1
   10719    10283    10363 1
   10720    10284    10364 1
   10721    10284    10365 1
   10722    10284    10366 1
   10723    10367    10368 1
   10724    10367    10374 1
   10725    10367    10410 1
   10726    10368    10369 1
   10727    10368    10372 1
   10728    10369    10370 1
   10729    10369    10373 1
   10730    10370    10371 1
   10731    10371    10372 1
   10732    10371    10382 1
   10733    10372    10378 1
   10734    10373    10374 1
   10735    10373    10377 1
   10736    10374    10375 1
   10737    10375    10376 1
   10738    10375    10379 1
   10739    10376    10377 1
   10740    10380    10381 1
   10741    10380    10388 1
   10742    10381    10382 1
   10743    10381    10389 1
   10744    10382    10383 1
   10745    10383    10384 1
   10746    10383    10387 1
   10747    10384    10385 1
   10748    10385    10386 1
   10749    10386    10387 1
   10750    10387    10388 1
   10751    10388    10522 1
   10752    10390    10391 1
   10753    10390    10431 1
   10754    10390    10432 1
   10755    10390    10433 1
   10756    10391    10392 1
   10757    10391    10434 1
   10758    10391    10435 1
   10759    10392    10393 1
   10760    10392    10436 1
   10761    10392    10437 1
   10762    10393    10394 1
   10763    10393    10438 1
   10764    10393    10439 1
   10765    10394    10395 1
   10766    10394    10440 1
   10767    10394    10441 1
   10768    10395    10396 1
   10769    10395    10442 1
   10770    10395    10443 1
   10771    10396    10397 1
   10772    10396    10444 1
   10773    10396    10445 1
   10774    10397    10398 1
   10775    10397    10446 1
   10776    10397    10447 1
   10777    10398    10399 1
   10778    10398    10448 1
   10779    10398    10449 1
   10780    10399    10400 1
   10781    10399    10450 1
   10782    10399    10451 1
   10783    10400    10401 1
   10784    10400    10409 1
   10785    10400    10452 1
   10786    10401    10402 1
   10787    10401    10453 1
   10788    10401    10454 1
   10789    10402    10403 1
   10790    10402    10455 1
   10791    10402    10456 1
   10792    10403    10404 1
   10793    10403    10457 1
   10794    10403    10458 1
   10795    10404    10405 1
   10796    10404    10459 1
   10797    10404    10460 1
   10798    10405    10406 1
   10799    10405    10461 1
   10800    10405    10462 1
   10801    10406    10407 1
   10802    10406    10463 1
   10803    10406    10464 1
   10804    10407    10408 1
   10805    10407    10465 1
   10806    10407    10466 1
   10807    10408    10467 1
   10808    10408    10468 1
   10809    10408    10469 1
   10810    10409    10410 1
   10811    10409    10470 1
   10812    10409    10471 1
   10813    10410    10411 1
   10814    10411    10412 1
   10815    10411    10472 1
   10816    10411    10473 1
   10817    10412    10413 1
   10818    10412    10421 1
   10819    10412    10474 1
   10820    10413    10414 1
   10821    10413    10475 1
   10822    10413    10476 1
   10823    10414    10415 1
   10824    10414    10477 1
   10825    10414    10478 1
   10826    10415    10416 1
   10827    10415    10479 1
   10828    10415    10480 1
   10829    10416    10417 1
   10830    10416    10481 1
   10831    10416    10482 1
   10832    10417    10418 1
   10833    10417    10483 1
   10834    10417    10484 1
   10835    10418    10419 1
   10836    10418    10485 1
   10837    10418    10486 1
   10838    10419    10420 1
   10839    10419    10487 1
   10840    10419    10488 1
   10841    10420    10489 1
   10842    10420    10490 1
   10843    10420    10491 1
   10844    10421    10422 1
   10845    10421    10492 1
   10846    10421    10493 1
   10847    10422    10423 1
   10848    10422    10494 1
   10849    10422    10495 1
   10850    10423    10424 1
   10851    10423    10496 1
   10852    10423    10497 1
   10853    10424    10425 1
   10854    10424    10498 1
   10855    10424    10499 1
   10856    10425    10426 1
   10857    10425    10500 1
   10858    10425    10501 1
   10859    10426    10427 1
   10860    10426    10502 1
   10861    10426    10503 1
   10862    10427    10428 1
   10863    10427    10504 1
   10864    10427    10505 1
   10865    10428    10429 1
   10866    10428    10506 1
   10867    10428    10507 1
   10868    10429    10430 1
   10869    10429    10508 1
   10870    10429    10509 1
   10871    10430    10510 1
   10872    10430    10511 1
   10873    10430    10512 1
   10874    10513    10514 1
   10875    10513    10520 1
   10876    10513    10556 1
   10877    10514    10515 1
   10878    10514    10518 1
   10879    10515    10516 1
   10880    10515    10519 1
   10881    10516    10517 1
   10882    10517    10518 1
   10883    10517    10528 1
   10884    10518    10524 1
   10885    10519    10520 1
   10886    10519    10523 1
   10887    10520    10521 1
   10888    10521    10522 1
   10889    10521    10525 1
   10890    10522    10523 1
   10891    10526    10527 1
   10892    10526    10534 1
   10893    10527    10528 1
   10894    10527    10535 1
   10895    10528    10529 1
   10896    10529    10530 1
   10897    10529    10533 1
   10898    10530    10531 1
   10899    10531    10532 1
   10900    10532    10533 1
   10901    10533    10534 1
   10902    10534    10668 1
   10903    10536    10537 1
   10904    10536    10577 1
   10905    10536    10578 1
   10906    10536    10579 1
   10907    10537    10538 1
   10908    10537    10580 1
   10909    10537    10581 1
   10910    10538    10539 1
   10911    10538    10582 1
   10912    10538    10583 1
   10913    10539    10540 1
   10914    10539    10584 1
   10915    10539    10585 1
   10916    10540    10541 1
   10917    10540    10586 1
   10918    10540    10587 1
   10919    10541    10542 1
   10920    10541    10588 1
   10921    10541    10589 1
   10922    10542    10543 1
   10923    10542    10590 1
   10924    10542    10591 1
   10925    10543    10544 1
   10926    10543    10592 1
   10927    10543    10593 1
   10928    10544    10545 1
   10929    10544    10594 1
   10930    10544    10595 1
   10931    10545    10546 1
   10932    10545    10596 1
   10933    10545    10597 1
   10934    10546    10547 1
   10935    10546    10555 1
   10936    10546    10598 1
   10937    10547    10548 1
   10938    10547    10599 1
   10939    10547    10600 1
   10940    10548    10549 1
   10941    10548    10601 1
   10942    10548    10602 1
   10943    10549    10550 1
   10944    10549    10603 1
   10945    10549    10604 1
   10946    10550    10551 1
   10947    10550    10605 1
   10948    10550    10606 1
   10949    10551    10552 1
   10950    10551    10607 1
   10951    10551    10608 1
   10952    10552    10553 1
   10953    10552    10609 1
   10954    10552    10610 1
   10955    10553    10554 1
   10956    10553    10611 1
   10957    10553    10612 1
   10958    10554    10613 1
   10959    10554    10614 1
   10960    10554    10615 1
   10961    10555    10556 1
   10962    10555    10616 1
   10963    10555    10617 1
   10964    10556    10557 1
   10965    10557    10558 1
   10966    10557    10618 1
   10967    10557    10619 1
   10968    10558    10559 1
   10969    10558    10567 1
   10970    10558    10620 1
   10971    10559    10560 1
   10972    10559    10621 1
   10973    10559    10622 1
   10974    10560    10561 1
   10975    10560    10623 1
   10976    10560    10624 1
   10977    10561    10562 1
   10978    10561    10625 1
   10979    10561    10626 1
   10980    10562    10563 1
   10981    10562    10627 1
   10982    10562    10628 1
   10983    10563    10564 1
   10984    10563    10629 1
   10985    10563    10630 1
   10986    10564    10565 1
   10987    10564    10631 1
   10988    10564    10632 1
   10989    10565    10566 1
   10990    10565    10633 1
   10991    10565    10634 1
   10992    10566    10635 1
   10993    10566    10636 1
   10994    10566    10637 1
   10995    10567    10568 1
   10996    10567    10638 1
   10997    10567    10639 1
   10998    10568    10569 1
   10999    10568    10640 1
   11000    10568    10641 1
   11001    10569    10570 1
   11002    10569    10642 1
   11003    10569    10643 1
   11004    10570    10571 1
   11005    10570    10644 1
   11006    10570    10645 1
   11007    10571    10572 1
   11008    10571    10646 1
   11009    10571    10647 1
   11010    10572    10573 1
   11011    10572    10648 1
   11012    10572    10649 1
   11013    10573    10574 1
   11014    10573    10650 1
   11015    10573    10651 1
   11016    10574    10575 1
   11017    10574    10652 1
   11018    10574    10653 1
   11019    10575    10576 1
   11020    10575    10654 1
   11021    10575    10655 1
   11022    10576    10656 1
   11023    10576    10657 1
   11024    10576    10658 1
   11025    10659    10660 1
   11026    10659    10666 1
   11027    10659    10702 1
   11028    10660    10661 1
   11029    10660    10664 1
   11030    10661    10662 1
   11031    10661    10665 1
   11032    10662    10663 1
   11033    10663    10664 1
   11034    10663    10674 1
   11035    10664    10670 1
   11036    10665    10666 1
   11037    10665    10669 1
   11038    10666    10667 1
   11039    10667    10668 1
   11040    10667    10671 1
   11041    10668    10669 1
   11042    10672    10673 1
   11043    10672    10680 1
   11044    10673    10674 1
   11045    10673    10681 1
   11046    10674    10675 1
   11047    10675    10676 1
   11048    10675    10679 1
   11049    10676    10677 1
   11050    10677    10678 1
   11051    10678    10679 1
   11052    10679    10680 1
   11053    10680    10814 1
   11054    10682    10683 1
   11055    10682    10723 1
   11056    10682    10724 1
   11057    10682    10725 1
   11058    10683    10684 1
   11059    10683    10726 1
   11060    10683    10727 1
   11061    10684    10685 1
   11062    10684    10728 1
   11063    10684    10729 1
   11064    10685    10686 1
   11065    10685    10730 1
   11066    10685    10731 1
   11067    10686    10687 1
   11068    10686    10732 1
   11069    10686    10733 1
   11070    10687    10688 1
   11071    10687    10734 1
   11072    10687    10735 1
   11073    10688    10689 1
   11074    10688    10736 1
   11075    10688    10737 1
   11076    10689    10690 1
   11077    10689    10738 1
   11078    10689    10739 1
   11079    10690    10691 1
   11080    10690    10740 1
   11081    10690    10741 1
   11082    10691    10692 1
   11083    10691    10742 1
   11084    10691    10743 1
   11085    10692    10693 1
   11086    10692    10701 1
   11087    10692    10744 1
   11088    10693    10694 1
   11089    10693    10745 1
   11090    10693    10746 1
   11091    10694    10695 1
   11092    10694    10747 1
   11093    10694    10748 1
   11094    10695    10696 1
   11095    10695    10749 1
   11096    10695    10750 1
   11097    10696    10697 1
   11098    10696    10751 1
   11099    10696    10752 1
   11100    10697    10698 1
   11101    10697    10753 1
   11102    10697    10754 1
   11103    10698    10699 1
   11104    10698    10755 1
   11105    10698    10756 1
   11106    10699    10700 1
   11107    10699    10757 1
   11108    10699    10758 1
   11109    10700    10759 1
   11110    10700    10760 1
   11111    10700    10761 1
   11112    10701    10702 1
   11113    10701    10762 1
   11114    10701    10763 1
   11115    10702    10703 1
   11116    10703    10704 1
   11117    10703    10764 1
   11118    10703    10765 1
   11119    10704    10705 1
   11120    10704    10713 1
   11121    10704    10766 1
   11122    10705    10706 1
   11123    10705    10767 1
   11124    10705    10768 1
   11125    10706    10707 1
   11126    10706    10769 1
   11127    10706    10770 1
   11128    10707    10708 1
   11129    10707    10771 1
   11130    10707    10772 1
   11131    10708    10709 1
   11132    10708    10773 1
   11133    10708    10774 1
   11134    10709    10710 1
   11135    10709    10775 1
   11136    10709    10776 1
   11137    10710    10711 1
   11138    10710    10777 1
   11139    10710    10778 1
   11140    10711    10712 1
   11141    10711    10779 1
   11142    10711    10780 1
   11143    10712    10781 1
   11144    10712    10782 1
   11145    10712    10783 1
   11146    10713    10714 1
   11147    10713    10784 1
   11148    10713    10785 1
   11149    10714    10715 1
   11150    10714    10786 1
   11151    10714    10787 1
   11152    10715    10716 1
   11153    10715    10788 1
   11154    10715    10789 1
   11155    10716    10717 1
   11156    10716    10790 1
   11157    10716    10791 1
   11158    10717    10718 1
   11159    10717    10792 1
   11160    10717    10793 1
   11161    10718    10719 1
   11162    10718    10794 1
   11163    10718    10795 1
   11164    10719    10720 1
   11165    10719    10796 1
   11166    10719    10797 1
   11167    10720    10721 1
   11168    10720    10798 1
   11169    10720    10799 1
   11170    10721    10722 1
   11171    10721    10800 1
   11172    10721    10801 1
   11173    10722    10802 1
   11174    10722    10803 1
   11175    10722    10804 1
   11176    10805    10806 1
   11177    10805    10812 1
   11178    10805    10848 1
   11179    10806    10807 1
   11180    10806    10810 1
   11181    10807    10808 1
   11182    10807    10811 1
   11183    10808    10809 1
   11184    10809    10810 1
   11185    10809    10820 1
   11186    10810    10816 1
   11187    10811    10812 1
   11188    10811    10815 1
   11189    10812    10813 1
   11190    10813    10814 1
   11191    10813    10817 1
   11192    10814    10815 1
   11193    10818    10819 1
   11194    10818    10826 1
   11195    10819    10820 1
   11196    10819    10827 1
   11197    10820    10821 1
   11198    10821    10822 1
   11199    10821    10825 1
   11200    10822    10823 1
   11201    10823    10824 1
   11202    10824    10825 1
   11203    10825    10826 1
   11204    10826    10960 1
   11205    10828    10829 1
   11206    10828    10869 1
   11207    10828    10870 1
   11208    10828    10871 1
   11209    10829    10830 1
   11210    10829    10872 1
   11211    10829    10873 1
   11212    10830    10831 1
   11213    10830    10874 1
   11214    10830    10875 1
   11215    10831    10832 1
   11216    10831    10876 1
   11217    10831    10877 1
   11218    10832    10833 1
   11219    10832    10878 1
   11220    10832    10879 1
   11221    10833    10834 1
   11222    10833    10880 1
   11223    10833    10881 1
   11224    10834    10835 1
   11225    10834    10882 1
   11226    10834    10883 1
   11227    10835    10836 1
   11228    10835    10884 1
   11229    10835    10885 1
   11230    10836    10837 1
   11231    10836    10886 1
   11232    10836    10887 1
   11233    10837    10838 1
   11234    10837    10888 1
   11235    10837    10889 1
   11236    10838    10839 1
   11237    10838    10847 1
   11238    10838    10890 1
   11239    10839    10840 1
   11240    10839    10891 1
   11241    10839    10892 1
   11242    10840    10841 1
   11243    10840    10893 1
   11244    10840    10894 1
   11245    10841    10842 1
   11246    10841    10895 1
   11247    10841    10896 1
   11248    10842    10843 1
   11249    10842    10897 1
   11250    10842    10898 1
   11251    10843    10844 1
   11252    10843    10899 1
   11253    10843    10900 1
   11254    10844    10845 1
   11255    10844    10901 1
   11256    10844    10902 1
   11257    10845    10846 1
   11258    10845    10903 1
   11259    10845    10904 1
   11260    10846    10905 1
   11261    10846    10906 1
   11262    10846    10907 1
   11263    10847    10848 1
   11264    10847    10908 1
   11265    10847    10909 1
   11266    10848    10849 1
   11267    10849    10850 1
   11268    10849    10910 1
   11269    10849    10911 1
   11270    10850    10851 1
   11271    10850    10859 1
   11272    10850    10912 1
   11273    10851    10852 1
   11274    10851    10913 1
   11275    10851    10914 1
   11276    10852    10853 1
   11277    10852    10915 1
   11278    10852    10916 1
   11279    10853    10854 1
   11280    10853    10917 1
   11281    10853    10918 1
   11282    10854    10855 1
   11283    10854    10919 1
   11284    10854    10920 1
   11285    10855    10856 1
   11286    10855    10921 1
   11287    10855    10922 1
   11288    10856    10857 1
   11289    10856    10923 1
   11290    10856    10924 1
   11291    10857    10858 1
   11292    10857    10925 1
   11293    10857    10926 1
   11294    10858    10927 1
   11295    10858    10928 1
   11296    10858    10929 1
   11297    10859    10860 1
   11298    10859    10930 1
   11299    10859    10931 1
   11300    10860    10861 1
   11301    10860    10932 1
   11302    10860    10933 1
   11303    10861    10862 1
   11304    10861    10934 1
   11305    10861    10935 1
   11306    10862    10863 1
   11307    10862    10936 1
   11308    10862    10937 1
   11309    10863    10864 1
   11310    10863    10938 1
   11311    10863    10939 1
   11312    10864    10865 1
   11313    10864    10940 1
   11314    10864    10941 1
   11315    10865    10866 1
   11316    10865    10942 1
   11317    10865    10943 1
   11318    10866    10867 1
   11319    10866    10944 1
   11320    10866    10945 1
   11321    10867    10868 1
   11322    10867    10946 1
   11323    10867    10947 1
   11324    10868    10948 1
   11325    10868    10949 1
   11326    10868    10950 1
   11327    10951    10952 1
   11328    10951    10958 1
   11329    10951    10994 1
   11330    10952    10953 1
   11331    10952    10956 1
   11332    10953    10954 1
   11333    10953    10957 1
   11334    10954    10955 1
   11335    10955    10956 1
   11336    10955    10966 1
   11337    10956    10962 1
   11338    10957    10958 1
   11339    10957    10961 1
   11340    10958    10959 1
   11341    10959    10960 1
   11342    10959    10963 1
   11343    10960    10961 1
   11344    10964    10965 1
   11345    10964    10972 1
   11346    10965    10966 1
   11347    10965    10973 1
   11348    10966    10967 1
   11349    10967    10968 1
   11350    10967    10971 1
   11351    10968    10969 1
   11352    10969    10970 1
   11353    10970    10971 1
   11354    10971    10972 1
   11355    10972    11106 1
   11356    10974    10975 1
   11357    10974    11015 1
   11358    10974    11016 1
   11359    10974    11017 1
   11360    10975    10976 1
   11361    10975    11018 1
   11362    10975    11019 1
   11363    10976    10977 1
   11364    10976    11020 1
   11365    10976    11021 1
   11366    10977    10978 1
   11367    10977    11022 1
   11368    10977    11023 1
   11369    10978    10979 1
   11370    10978    11024 1
   11371    10978    11025 1
   11372    10979    10980 1
   11373    10979    11026 1
   11374    10979    11027 1
   11375    10980    10981 1
   11376    10980    11028 1
   11377    10980    11029 1
   11378    10981    10982 1
   11379    10981    11030 1
   11380    10981    11031 1
   11381    10982    10983 1
   11382    10982    11032 1
   11383    10982    11033 1
   11384    10983    10984 1
   11385    10983    11034 1
   11386    10983    11035 1
   11387    10984    10985 1
   11388    10984    10993 1
   11389    10984    11036 1
   11390    10985    10986 1
   11391    10985    11037 1
   11392    10985    11038 1
   11393    10986    10987 1
   11394    10986    11039 1
   11395    10986    11040 1
   11396    10987    10988 1
   11397    10987    11041 1
   11398    10987    11042 1
   11399    10988    10989 1
   11400    10988    11043 1
   11401    10988    11044 1
   11402    10989    10990 1
   11403    10989    11045 1
   11404    10989    11046 1
   11405    10990    10991 1
   11406    10990    11047 1
   11407    10990    11048 1
   11408    10991    10992 1
   11409    10991    11049 1
   11410    10991    11050 1
   11411    10992    11051 1
   11412    10992    11052 1
   11413    10992    11053 1
   11414    10993    10994 1
   11415    10993    11054 1
   11416    10993    11055 1
   11417    10994    10995 1
   11418    10995    10996 1
   11419    10995    11056 1
   11420    10995    11057 1
   11421    10996    10997 1
   11422    10996    11005 1
   11423    10996    11058 1
   11424    10997    10998 1
   11425    10997    11059 1
   11426    10997    11060 1
   11427    10998    10999 1
   11428    10998    11061 1
   11429    10998    11062 1
   11430    10999    11000 1
   11431    10999    11063 1
   11432    10999    11064 1
   11433    11000    11001 1
   11434    11000    11065 1
   11435    11000    11066 1
   11436    11001    11002 1
   11437    11001    11067 1
   11438    11001    11068 1
   11439    11002    11003 1
   11440    11002    11069 1
   11441    11002    11070 1
   11442    11003    11004 1
   11443    11003    11071 1
   11444    11003    11072 1
   11445    11004    11073 1
   11446    11004    11074 1
   11447    11004    11075 1
   11448    11005    11006 1
   11449    11005    11076 1
   11450    11005    11077 1
   11451    11006    11007 1
   11452    11006    11078 1
   11453    11006    11079 1
   11454    11007    11008 1
   11455    11007    11080 1
   11456    11007    11081 1
   11457    11008    11009 1
   11458    11008    11082 1
   11459    11008    11083 1
   11460    11009    11010 1
   11461    11009    11084 1
   11462    11009    11085 1
   11463    11010    11011 1
   11464    11010    11086 1
   11465    11010    11087 1
   11466    11011    11012 1
   11467    11011    11088 1
   11468    11011    11089 1
   11469    11012    11013 1
   11470    11012    11090 1
   11471    11012    11091 1
   11472    11013    11014 1
   11473    11013    11092 1
   11474    11013    11093 1
   11475    11014    11094 1
   11476    11014    11095 1
   11477    11014    11096 1
   11478    11097    11098 1
   11479    11097    11104 1
   11480    11097    11140 1
   11481    11098    11099 1
   11482    11098    11102 1
   11483    11099    11100 1
   11484    11099    11103 1
   11485    11100    11101 1
   11486    11101    11102 1
   11487    11101    11112 1
   11488    11102    11108 1
   11489    11103    11104 1
   11490    11103    11107 1
   11491    11104    11105 1
   11492    11105    11106 1
   11493    11105    11109 1
   11494    11106    11107 1
   11495    11110    11111 1
   11496    11110    11118 1
   11497    11111    11112 1
   11498    11111    11119 1
   11499    11112    11113 1
   11500    11113    11114 1
   11501    11113    11117 1
   11502    11114    11115 1
   11503    11115    11116 1
   11504    11116    11117 1
   11505    11117    11118 1
   11506    11118    11252 1
   11507    11120    11121 1
   11508    11120    11161 1
   11509    11120    11162 1
   11510    11120    11163 1
   11511    11121    11122 1
   11512    11121    11164 1
   11513    11121    11165 1
   11514    11122    11123 1
   11515    11122    11166 1
   11516    11122    11167 1
   11517    11123    11124 1
   11518    11123    11168 1
   11519    11123    11169 1
   11520    11124    11125 1
   11521    11124    11170 1
   11522    11124    11171 1
   11523    11125    11126 1
   11524    11125    11172 1
   11525    11125    11173 1
   11526    11126    11127 1
   11527    11126    11174 1
   11528    11126    11175 1
   11529    11127    11128 1
   11530    11127    11176 1
   11531    11127    11177 1
   11532    11128    11129 1
   11533    11128    11178 1
   11534    11128    11179 1
   11535    11129    11130 1
   11536    11129    11180 1
   11537    11129    11181 1
   11538    11130    11131 1
   11539    11130    11139 1
   11540    11130    11182 1
   11541    11131    11132 1
   11542    11131    11183 1
   11543    11131    11184 1
   11544    11132    11133 1
   11545    11132    11185 1
   11546    11132    11186 1
   11547    11133    11134 1
   11548    11133    11187 1
   11549    11133    11188 1
   11550    11134    11135 1
   11551    11134    11189 1
   11552    11134    11190 1
   11553    11135    11136 1
   11554    11135    11191 1
   11555    11135    11192 1
   11556    11136    11137 1
   11557    11136    11193 1
   11558    11136    11194 1
   11559    11137    11138 1
   11560    11137    11195 1
   11561    11137    11196 1
   11562    11138    11197 1
   11563    11138    11198 1
   11564    11138    11199 1
   11565    11139    11140 1
   11566    11139    11200 1
   11567    11139    11201 1
   11568    11140    11141 1
   11569    11141    11142 1
   11570    11141    11202 1
   11571    11141    11203 1
   11572    11142    11143 1
   11573    11142    11151 1
   11574    11142    11204 1
   11575    11143    11144 1
   11576    11143    11205 1
   11577    11143    11206 1
   11578    11144    11145 1
   11579    11144    11207 1
   11580    11144    11208 1
   11581    11145    11146 1
   11582    11145    11209 1
   11583    11145    11210 1
   11584    11146    11147 1
   11585    11146    11211 1
   11586    11146    11212 1
   11587    11147    11148 1
   11588    11147    11213 1
   11589    11147    11214 1
   11590    11148    11149 1
   11591    11148    11215 1
   11592    11148    11216 1
   11593    11149    11150 1
   11594    11149    11217 1
   11595    11149    11218 1
   11596    11150    11219 1
   11597    11150    11220 1
   11598    11150    11221 1
   11599    11151    11152 1
   11600    11151    11222 1
   11601    11151    11223 1
   11602    11152    11153 1
   11603    11152    11224 1
   11604    11152    11225 1
   11605    11153    11154 1
   11606    11153    11226 1
   11607    11153    11227 1
   11608    11154    11155 1
   11609    11154    11228 1
   11610    11154    11229 1
   11611    11155    11156 1
   11612    11155    11230 1
   11613    11155    11231 1
   11614    11156    11157 1
   11615    11156    11232 1
   11616    11156    11233 1
   11617    11157    11158 1
   11618    11157    11234 1
   11619    11157    11235 1
   11620    11158    11159 1
   11621    11158    11236 1
   11622    11158    11237 1
   11623    11159    11160 1
   11624    11159    11238 1
   11625    11159    11239 1
   11626    11160    11240 1
   11627    11160    11241 1
   11628    11160    11242 1
   11629    11243    11244 1
   11630    11243    11250 1
   11631    11243    11286 1
   11632    11244    11245 1
   11633    11244    11248 1
   11634    11245    11246 1
   11635    11245    11249 1
   11636    11246    11247 1
   11637    11247    11248 1
   11638    11247    11258 1
   11639    11248    11254 1
   11640    11249    11250 1
   11641    11249    11253 1
   11642    11250    11251 1
   11643    11251    11252 1
   11644    11251    11255 1
   11645    11252    11253 1
   11646    11256    11257 1
   11647    11256    11264 1
   11648    11257    11258 1
   11649    11257    11265 1
   11650    11258    11259 1
   11651    11259    11260 1
   11652    11259    11263 1
   11653    11260    11261 1
   11654    11261    11262 1
   11655    11262    11263 1
   11656    11263    11264 1
   11657    11264    11398 1
   11658    11266    11267 1
   11659    11266    11307 1
   11660    11266    11308 1
   11661    11266    11309 1
   11662    11267    11268 1
   11663    11267    11310 1
   11664    11267    11311 1
   11665    11268    11269 1
   11666    11268    11312 1
   11667    11268    11313 1
   11668    11269    11270 1
   11669    11269    11314 1
   11670    11269    11315 1
   11671    11270    11271 1
   11672    11270    11316 1
   11673    11270    11317 1
   11674    11271    11272 1
   11675    11271    11318 1
   11676    11271    11319 1
   11677    11272    11273 1
   11678    11272    11320 1
   11679    11272    11321 1
   11680    11273    11274 1
   11681    11273    11322 1
   11682    11273    11323 1
   11683    11274    11275 1
   11684    11274    11324 1
   11685    11274    11325 1
   11686    11275    11276 1
   11687    11275    11326 1
   11688    11275    11327 1
   11689    11276    11277 1
   11690    11276    11285 1
   11691    11276    11328 1
   11692    11277    11278 1
   11693    11277    11329 1
   11694    11277    11330 1
   11695    11278    11279 1
   11696    11278    11331 1
   11697    11278    11332 1
   11698    11279    11280 1
   11699    11279    11333 1
   11700    11279    11334 1
   11701    11280    11281 1
   11702    11280    11335 1
   11703    11280    11336 1
   11704    11281    11282 1
   11705    11281    11337 1
   11706    11281    11338 1
   11707    11282    11283 1
   11708    11282    11339 1
   11709    11282    11340 1
   11710    11283    11284 1
   11711    11283    11341 1
   11712    11283    11342 1
   11713    11284    11343 1
   11714    11284    11344 1
   11715    11284    11345 1
   11716    11285    11286 1
   11717    11285    11346 1
   11718    11285    11347 1
   11719    11286    11287 1
   11720    11287    11288 1
   11721    11287    11348 1
   11722    11287    11349 1
   11723    11288    11289 1
   11724    11288    11297 1
   11725    11288    11350 1
   11726    11289    11290 1
   11727    11289    11351 1
   11728    11289    11352 1
   11729    11290    11291 1
   11730    11290    11353 1
   11731    11290    11354 1
   11732    11291    11292 1
   11733    11291    11355 1
   11734    11291    11356 1
   11735    11292    11293 1
   11736    11292    11357 1
   11737    11292    11358 1
   11738    11293    11294 1
   11739    11293    11359 1
   11740    11293    11360 1
   11741    11294    11295 1
   11742    11294    11361 1
   11743    11294    11362 1
   11744    11295    11296 1
   11745    11295    11363 1
   11746    11295    11364 1
   11747    11296    11365 1
   11748    11296    11366 1
   11749    11296    11367 1
   11750    11297    11298 1
   11751    11297    11368 1
   11752    11297    11369 1
   11753    11298    11299 1
   11754    11298    11370 1
   11755    11298    11371 1
   11756    11299    11300 1
   11757    11299    11372 1
   11758    11299    11373 1
   11759    11300    11301 1
   11760    11300    11374 1
   11761    11300    11375 1
   11762    11301    11302 1
   11763    11301    11376 1
   11764    11301    11377 1
   11765    11302    11303 1
   11766    11302    11378 1
   11767    11302    11379 1
   11768    11303    11304 1
   11769    11303    11380 1
   11770    11303    11381 1
   11771    11304    11305 1
   11772    11304    11382 1
   11773    11304    11383 1
   11774    11305    11306 1
   11775    11305    11384 1
   11776    11305    11385 1
   11777    11306    11386 1
   11778    11306    11387 1
   11779    11306    11388 1
   11780    11389    11390 1
   11781    11389    11396 1
   11782    11389    11432 1
   11783    11390    11391 1
   11784    11390    11394 1
   11785    11391    11392 1
   11786    11391    11395 1
   11787    11392    11393 1
   11788    11393    11394 1
   11789    11393    11404 1
   11790    11394    11400 1
   11791    11395    11396 1
   11792    11395    11399 1
   11793    11396    11397 1
   11794    11397    11398 1
   11795    11397    11401 1
   11796    11398    11399 1
   11797    11402    11403 1
   11798    11402    11410 1
   11799    11403    11404 1
   11800    11403    11411 1
   11801    11404    11405 1
   11802    11405    11406 1
   11803    11405    11409 1
   11804    11406    11407 1
   11805    11407    11408 1
   11806    11408    11409 1
   11807    11409    11410 1
   11808    11410    11544 1
   11809    11412    11413 1
   11810    11412    11453 1
   11811    11412    11454 1
   11812    11412    11455 1
   11813    11413    11414 1
   11814    11413    11456 1
   11815    11413    11457 1
   11816    11414    11415 1
   11817    11414    11458 1
   11818    11414    11459 1
   11819    11415    11416 1
   11820    11415    11460 1
   11821    11415    11461 1
   11822    11416    11417 1
   11823    11416    11462 1
   11824    11416    11463 1
   11825    11417    11418 1
   11826    11417    11464 1
   11827    11417    11465 1
   11828    11418    11419 1
   11829    11418    11466 1
   11830    11418    11467 1
   11831    11419    11420 1
   11832    11419    11468 1
   11833    11419    11469 1
   11834    11420    11421 1
   11835    11420    11470 1
   11836    11420    11471 1
   11837    11421    11422 1
   11838    11421    11472 1
   11839    11421    11473 1
   11840    11422    11423 1
   11841    11422    11431 1
   11842    11422    11474 1
   11843    11423    11424 1
   11844    11423    11475 1
   11845    11423    11476 1
   11846    11424    11425 1
   11847    11424    11477 1
   11848    11424    11478 1
   11849    11425    11426 1
   11850    11425    11479 1
   11851    11425    11480 1
   11852    11426    11427 1
   11853    11426    11481 1
   11854    11426    11482 1
   11855    11427    11428 1
   11856    11427    11483 1
   11857    11427    11484 1
   11858    11428    11429 1
   11859    11428    11485 1
   11860    11428    11486 1
   11861    11429    11430 1
   11862    11429    11487 1
   11863    11429    11488 1
   11864    11430    11489 1
   11865    11430    11490 1
   11866    11430    11491 1
   11867    11431    11432 1
   11868    11431    11492 1
   11869    11431    11493 1
   11870    11432    11433 1
   11871    11433    11434 1
   11872    11433    11494 1
   11873    11433    11495 1
   11874    11434    11435 1
   11875    11434    11443 1
   11876    11434    11496 1
   11877    11435    11436 1
   11878    11435    11497 1
   11879    11435    11498 1
   11880    11436    11437 1
   11881    11436    11499 1
   11882    11436    11500 1
   11883    11437    11438 1
   11884    11437    11501 1
   11885    11437    11502 1
   11886    11438    11439 1
   11887    11438    11503 1
   11888    11438    11504 1
   11889    11439    11440 1
   11890    11439    11505 1
   11891    11439    11506 1
   11892    11440    11441 1
   11893    11440    11507 1
   11894    11440    11508 1
   11895    11441    11442 1
   11896    11441    11509 1
   11897    11441    11510 1
   11898    11442    11511 1
   11899    11442    11512 1
   11900    11442    11513 1
   11901    11443    11444 1
   11902    11443    11514 1
   11903    11443    11515 1
   11904    11444    11445 1
   11905    11444    11516 1
   11906    11444    11517 1
   11907    11445    11446 1
   11908    11445    11518 1
   11909    11445    11519 1
   11910    11446    11447 1
   11911    11446    11520 1
   11912    11446    11521 1
   11913    11447    11448 1
   11914    11447    11522 1
   11915    11447    11523 1
   11916    11448    11449 1
   11917    11448    11524 1
   11918    11448    11525 1
   11919    11449    11450 1
   11920    11449    11526 1
   11921    11449    11527 1
   11922    11450    11451 1
   11923    11450    11528 1
   11924    11450    11529 1
   11925    11451    11452 1
   11926    11451    11530 1
   11927    11451    11531 1
   11928    11452    11532 1
   11929    11452    11533 1
   11930    11452    11534 1
   11931    11535    11536 1
   11932    11535    11542 1
   11933    11535    11578 1
   11934    11536    11537 1
   11935    11536    11540 1
   11936    11537    11538 1
   11937    11537    11541 1
   11938    11538    11539 1
   11939    11539    11540 1
   11940    11539    11550 1
   11941    11540    11546 1
   11942    11541    11542 1
   11943    11541    11545 1
   11944    11542    11543 1
   11945    11543    11544 1
   11946    11543    11547 1
   11947    11544    11545 1
   11948    11548    11549 1
   11949    11548    11556 1
   11950    11549    11550 1
   11951    11549    11557 1
   11952    11550    11551 1
   11953    11551    11552 1
   11954    11551    11555 1
   11955    11552    11553 1
   11956    11553    11554 1
   11957    11554    11555 1
   11958    11555    11556 1
   11959    11556    11690 1
   11960    11558    11559 1
   11961    11558    11599 1
   11962    11558    11600 1
   11963    11558    11601 1
   11964    11559    11560 1
   11965    11559    11602 1
   11966    11559    11603 1
   11967    11560    11561 1
   11968    11560    11604 1
   11969    11560    11605 1
   11970    11561    11562 1
   11971    11561    11606 1
   11972    11561    11607 1
   11973    11562    11563 1
   11974    11562    11608 1
   11975    11562    11609 1
   11976    11563    11564 1
   11977    11563    11610 1
   11978    11563    11611 1
   11979    11564    11565 1
   11980    11564    11612 1
   11981    11564    11613 1
   11982    11565    11566 1
   11983    11565    11614 1
   11984    11565    11615 1
   11985    11566    11567 1
   11986    11566    11616 1
   11987    11566    11617 1
   11988    11567    11568 1
   11989    11567    11618 1
   11990    11567    11619 1
   11991    11568    11569 1
   11992    11568    11577 1
   11993    11568    11620 1
   11994    11569    11570 1
   11995    11569    11621 1
   11996    11569    11622 1
   11997    11570    11571 1
   11998    11570    11623 1
   11999    11570    11624 1
   12000    11571    11572 1
   12001    11571    11625 1
   12002    11571    11626 1
   12003    11572    11573 1
   12004    11572    11627 1
   12005    11572    11628 1
   12006    11573    11574 1
   12007    11573    11629 1
   12008    11573    11630 1
   12009    11574    11575 1
   12010    11574    11631 1
   12011    11574    11632 1
   12012    11575    11576 1
   12013    11575    11633 1
   12014    11575    11634 1
   12015    11576    11635 1
   12016    11576    11636 1
   12017    11576    11637 1
   12018    11577    11578 1
   12019    11577    11638 1
   12020    11577    11639 1
   12021    11578    11579 1
   12022    11579    11580 1
   12023    11579    11640 1
   12024    11579    11641 1
   12025    11580    11581 1
   12026    11580    11589 1
   12027    11580    11642 1
   12028    11581    11582 1
   12029    11581    11643 1
   12030    11581    11644 1
   12031    11582    11583 1
   12032    11582    11645 1
   12033    11582    11646 1
   12034    11583    11584 1
   12035    11583    11647 1
   12036    11583    11648 1
   12037    11584    11585 1
   12038    11584    11649 1
   12039    11584    11650 1
   12040    11585    11586 1
   12041    11585    11651 1
   12042    11585    11652 1
   12043    11586    11587 1
   12044    11586    11653 1
   12045    11586    11654 1
   12046    11587    11588 1
   12047    11587    11655 1
   12048    11587    11656 1
   12049    11588    11657 1
   12050    11588    11658 1
   12051    11588    11659 1
   12052    11589    11590 1
   12053    11589    11660 1
   12054    11589    11661 1
   12055    11590    11591 1
   12056    11590    11662 1
   12057    11590    11663 1
   12058    11591    11592 1
   12059    11591    11664 1
   12060    11591    11665 1
   12061    11592    11593 1
   12062    11592    11666 1
   12063    11592    11667 1
   12064    11593    11594 1
   12065    11593    11668 1
   12066    11593    11669 1
   12067    11594    11595 1
   12068    11594    11670 1
   12069    11594    11671 1
   12070    11595    11596 1
   12071    11595    11672 1
   12072    11595    11673 1
   12073    11596    11597 1
   12074    11596    11674 1
   12075    11596    11675 1
   12076    11597    11598 1
   12077    11597    11676 1
   12078    11597    11677 1
   12079    11598    11678 1
   12080    11598    11679 1
   12081    11598    11680 1
   12082    11681    11682 1
   12083    11681    11688 1
   12084    11681    11724 1
   12085    11682    11683 1
   12086    11682    11686 1
   12087    11683    11684 1
   12088    11683    11687 1
   12089    11684    11685 1
   12090    11685    11686 1
   12091    11685    11696 1
   12092    11686    11692 1
   12093    11687    11688 1
   12094    11687    11691 1
   12095    11688    11689 1
   12096    11689    11690 1
   12097    11689    11693 1
   12098    11690    11691 1
   12099    11694    11695 1
   12100    11694    11702 1
   12101    11695    11696 1
   12102    11695    11703 1
   12103    11696    11697 1
   12104    11697    11698 1
   12105    11697    11701 1
   12106    11698    11699 1
   12107    11699    11700 1
   12108    11700    11701 1
   12109    11701    11702 1
   12110    11702    11836 1
   12111    11704    11705 1
   12112    11704    11745 1
   12113    11704    11746 1
   12114    11704    11747 1
   12115    11705    11706 1
   12116    11705    11748 1
   12117    11705    11749 1
   12118    11706    11707 1
   12119    11706    11750 1
   12120    11706    11751 1
   12121    11707    11708 1
   12122    11707    11752 1
   12123    11707    11753 1
   12124    11708    11709 1
   12125    11708    11754 1
   12126    11708    11755 1
   12127    11709    11710 1
   12128    11709    11756 1
   12129    11709    11757 1
   12130    11710    11711 1
   12131    11710    11758 1
   12132    11710    11759 1
   12133    11711    11712 1
   12134    11711    11760 1
   12135    11711    11761 1
   12136    11712    11713 1
   12137    11712    11762 1
   12138    11712    11763 1
   12139    11713    11714 1
   12140    11713    11764 1
   12141    11713    11765 1
   12142    11714    11715 1
   12143    11714    11723 1
   12144    11714    11766 1
   12145    11715    11716 1
   12146    11715    11767 1
   12147    11715    11768 1
   12148    11716    11717 1
   12149    11716    11769 1
   12150    11716    11770 1
   12151    11717    11718 1
   12152    11717    11771 1
   12153    11717    11772 1
   12154    11718    11719 1
   12155    11718    11773 1
   12156    11718    11774 1
   12157    11719    11720 1
   12158    11719    11775 1
   12159    11719    11776 1
   12160    11720    11721 1
   12161    11720    11777 1
   12162    11720    11778 1
   12163    11721    11722 1
   12164    11721    11779 1
   12165    11721    11780 1
   12166    11722    11781 1
   12167    11722    11782 1
   12168    11722    11783 1
   12169    11723    11724 1
   12170    11723    11784 1
   12171    11723    11785 1
   12172    11724    11725 1
   12173    11725    11726 1
   12174    11725    11786 1
   12175    11725    11787 1
   12176    11726    11727 1
   12177    11726    11735 1
   12178    11726    11788 1
   12179    11727    11728 1
   12180    11727    11789 1
   12181    11727    11790 1
   12182    11728    11729 1
   12183    11728    11791 1
   12184    11728    11792 1
   12185    11729    11730 1
   12186    11729    11793 1
   12187    11729    11794 1
   12188    11730    11731 1
   12189    11730    11795 1
   12190    11730    11796 1
   12191    11731    11732 1
   12192    11731    11797 1
   12193    11731    11798 1
   12194    11732    11733 1
   12195    11732    11799 1
   12196    11732    11800 1
   12197    11733    11734 1
   12198    11733    11801 1
   12199    11733    11802 1
   12200    11734    11803 1
   12201    11734    11804 1
   12202    11734    11805 1
   12203    11735    11736 1
   12204    11735    11806 1
   12205    11735    11807 1
   12206    11736    11737 1
   12207    11736    11808 1
   12208    11736    11809 1
   12209    11737    11738 1
   12210    11737    11810 1
   12211    11737    11811 1
   12212    11738    11739 1
   12213    11738    11812 1
   12214    11738    11813 1
   12215    11739    11740 1
   12216    11739    11814 1
   12217    11739    11815 1
   12218    11740    11741 1
   12219    11740    11816 1
   12220    11740    11817 1
   12221    11741    11742 1
   12222    11741    11818 1
   12223    11741    11819 1
   12224    11742    11743 1
   12225    11742    11820 1
   12226    11742    11821 1
   12227    11743    11744 1
   12228    11743    11822 1
   12229    11743    11823 1
   12230    11744    11824 1
   12231    11744    11825 1
   12232    11744    11826 1
   12233    11827    11828 1
   12234    11827    11834 1
   12235    11827    11870 1
   12236    11828    11829 1
   12237    11828    11832 1
   12238    11829    11830 1
   12239    11829    11833 1
   12240    11830    11831 1
   12241    11831    11832 1
   12242    11831    11842 1
   12243    11832    11838 1
   12244    11833    11834 1
   12245    11833    11837 1
   12246    11834    11835 1
   12247    11835    11836 1
   12248    11835    11839 1
   12249    11836    11837 1
   12250    11840    11841 1
   12251    11840    11848 1
   12252    11841    11842 1
   12253    11841    11849 1
   12254    11842    11843 1
   12255    11843    11844 1
   12256    11843    11847 1
   12257    11844    11845 1
   12258    11845    11846 1
   12259    11846    11847 1
   12260    11847    11848 1
   12261    11848    11982 1
   12262    11850    11851 1
   12263    11850    11891 1
   12264    11850    11892 1
   12265    11850    11893 1
   12266    11851    11852 1
   12267    11851    11894 1
   12268    11851    11895 1
   12269    11852    11853 1
   12270    11852    11896 1
   12271    11852    11897 1
   12272    11853    11854 1
   12273    11853    11898 1
   12274    11853    11899 1
   12275    11854    11855 1
   12276    11854    11900 1
   12277    11854    11901 1
   12278    11855    11856 1
   12279    11855    11902 1
   12280    11855    11903 1
   12281    11856    11857 1
   12282    11856    11904 1
   12283    11856    11905 1
   12284    11857    11858 1
   12285    11857    11906 1
   12286    11857    11907 1
   12287    11858    11859 1
   12288    11858    11908 1
   12289    11858    11909 1
   12290    11859    11860 1
   12291    11859    11910 1
   12292    11859    11911 1
   12293    11860    11861 1
   12294    11860    11869 1
   12295    11860    11912 1
   12296    11861    11862 1
   12297    11861    11913 1
   12298    11861    11914 1
   12299    11862    11863 1
   12300    11862    11915 1
   12301    11862    11916 1
   12302    11863    11864 1
   12303    11863    11917 1
   12304    11863    11918 1
   12305    11864    11865 1
   12306    11864    11919 1
   12307    11864    11920 1
   12308    11865    11866 1
   12309    11865    11921 1
   12310    11865    11922 1
   12311    11866    11867 1
   12312    11866    11923 1
   12313    11866    11924 1
   12314    11867    11868 1
   12315    11867    11925 1
   12316    11867    11926 1
   12317    11868    11927 1
   12318    11868    11928 1
   12319    11868    11929 1
   12320    11869    11870 1
   12321    11869    11930 1
   12322    11869    11931 1
   12323    11870    11871 1
   12324    11871    11872 1
   12325    11871    11932 1
   12326    11871    11933 1
   12327    11872    11873 1
   12328    11872    11881 1
   12329    11872    11934 1
   12330    11873    11874 1
   12331    11873    11935 1
   12332    11873    11936 1
   12333    11874    11875 1
   12334    11874    11937 1
   12335    11874    11938 1
   12336    11875    11876 1
   12337    11875    11939 1
   12338    11875    11940 1
   12339    11876    11877 1
   12340    11876    11941 1
   12341    11876    11942 1
   12342    11877    11878 1
   12343    11877    11943 1
   12344    11877    11944 1
   12345    11878    11879 1
   12346    11878    11945 1
   12347    11878    11946 1
   12348    11879    11880 1
   12349    11879    11947 1
   12350    11879    11948 1
   12351    11880    11949 1
   12352    11880    11950 1
   12353    11880    11951 1
   12354    11881    11882 1
   12355    11881    11952 1
   12356    11881    11953 1
   12357    11882    11883 1
   12358    11882    11954 1
   12359    11882    11955 1
   12360    11883    11884 1
   12361    11883    11956 1
   12362    11883    11957 1
   12363    11884    11885 1
   12364    11884    11958 1
   12365    11884    11959 1
   12366    11885    11886 1
   12367    11885    11960 1
   12368    11885    11961 1
   12369    11886    11887 1
   12370    11886    11962 1
   12371    11886    11963 1
   12372    11887    11888 1
   12373    11887    11964 1
   12374    11887    11965 1
   12375    11888    11889 1
   12376    11888    11966 1
   12377    11888    11967 1
   12378    11889    11890 1
   12379    11889    11968 1
   12380    11889    11969 1
   12381    11890    11970 1
   12382    11890    11971 1
   12383    11890    11972 1
   12384    11973    11974 1
   12385    11973    11980 1
   12386    11973    12016 1
   12387    11974    11975 1
   12388    11974    11978 1
   12389    11975    11976 1
   12390    11975    11979 1
   12391    11976    11977 1
   12392    11977    11978 1
   12393    11977    11988 1
   12394    11978    11984 1
   12395    11979    11980 1
   12396    11979    11983 1
   12397    11980    11981 1
   12398    11981    11982 1
   12399    11981    11985 1
   12400    11982    11983 1
   12401    11986    11987 1
   12402    11986    11994 1
   12403    11987    11988 1
   12404    11987    11995 1
   12405    11988    11989 1
   12406    11989    11990 1
   12407    11989    11993 1
   12408    11990    11991 1
   12409    11991    11992 1
   12410    11992    11993 1
   12411    11993    11994 1
   12412    11994    12128 1
   12413    11996    11997 1
   12414    11996    12037 1
   12415    11996    12038 1
   12416    11996    12039 1
   12417    11997    11998 1
   12418    11997    12040 1
   12419    11997    12041 1
   12420    11998    11999 1
   12421    11998    12042 1
   12422    11998    12043 1
   12423    11999    12000 1
   12424    11999    12044 1
   12425    11999    12045 1
   12426    12000    12001 1
   12427    12000    12046 1
   12428    12000    12047 1
   12429    12001    12002 1
   12430    12001    12048 1
   12431    12001    12049 1
   12432    12002    12003 1
   12433    12002    12050 1
   12434    12002    12051 1
   12435    12003    12004 1
   12436    12003    12052 1
   12437    12003    12053 1
   12438    12004    12005 1
   12439    12004    12054 1
   12440    12004    12055 1
   12441    12005    12006 1
   12442    12005    12056 1
   12443    12005    12057 1
   12444    12006    12007 1
   12445    12006    12015 1
   12446    12006    12058 1
   12447    12007    12008 1
   12448    12007    12059 1
   12449    12007    12060 1
   12450    12008    12009 1
   12451    12008    12061 1
   12452    12008    12062 1
   12453    12009    12010 1
   12454    12009    12063 1
   12455    12009    12064 1
   12456    12010    12011 1
   12457    12010    12065 1
   12458    12010    12066 1
   12459    12011    12012 1
   12460    12011    12067 1
   12461    12011    12068 1
   12462    12012    12013 1
   12463    12012    12069 1
   12464    12012    12070 1
   12465    12013    12014 1
   12466    12013    12071 1
   12467    12013    12072 1
   12468    12014    12073 1
   12469    12014    12074 1
   12470    12014    12075 1
   12471    12015    12016 1
   12472    12015    12076 1
   12473    12015    12077 1
   12474    12016    12017 1
   12475    12017    12018 1
   12476    12017    12078 1
   12477    12017    12079 1
   12478    12018    12019 1
   12479    12018    12027 1
   12480    12018    12080 1
   12481    12019    12020 1
   12482    12019    12081 1
   12483    12019    12082 1
   12484    12020    12021 1
   12485    12020    12083 1
   12486    12020    12084 1
   12487    12021    12022 1
   12488    12021    12085 1
   12489    12021    12086 1
   12490    12022    12023 1
   12491    12022    12087 1
   12492    12022    12088 1
   12493    12023    12024 1
   12494    12023    12089 1
   12495    12023    12090 1
   12496    12024    12025 1
   12497    12024    12091 1
   12498    12024    12092 1
   12499    12025    12026 1
   12500    12025    12093 1
   12501    12025    12094 1
   12502    12026    12095 1
   12503    12026    12096 1
   12504    12026    12097 1
   12505    12027    12028 1
   12506    12027    12098 1
   12507    12027    12099 1
   12508    12028    12029 1
   12509    12028    12100 1
   12510    12028    12101 1
   12511    12029    12030 1
   12512    12029    12102 1
   12513    12029    12103 1
   12514    12030    12031 1
   12515    12030    12104 1
   12516    12030    12105 1
   12517    12031    12032 1
   12518    12031    12106 1
   12519    12031    12107 1
   12520    12032    12033 1
   12521    12032    12108 1
   12522    12032    12109 1
   12523    12033    12034 1
   12524    12033    12110 1
   12525    12033    12111 1
   12526    12034    12035 1
   12527    12034    12112 1
   12528    12034    12113 1
   12529    12035    12036 1
   12530    12035    12114 1
   12531    12035    12115 1
   12532    12036    12116 1
   12533    12036    12117 1
   12534    12036    12118 1
   12535    12119    12120 1
   12536    12119    12126 1
   12537    12119    12162 1
   12538    12120    12121 1
   12539    12120    12124 1
   12540    12121    12122 1
   12541    12121    12125 1
   12542    12122    12123 1
   12543    12123    12124 1
   12544    12123    12134 1
   12545    12124    12130 1
   12546    12125    12126 1
   12547    12125    12129 1
   12548    12126    12127 1
   12549    12127    12128 1
   12550    12127    12131 1
   12551    12128    12129 1
   12552    12132    12133 1
   12553    12132    12140 1
   12554    12133    12134 1
   12555    12133    12141 1
   12556    12134    12135 1
   12557    12135    12136 1
   12558    12135    12139 1
   12559    12136    12137 1
   12560    12137    12138 1
   12561    12138    12139 1
   12562    12139    12140 1
   12563    12140    12274 1
   12564    12142    12143 1
   12565    12142    12183 1
   12566    12142    12184 1
   12567    12142    12185 1
   12568    12143    12144 1
   12569    12143    12186 1
   12570    12143    12187 1
   12571    12144    12145 1
   12572    12144    12188 1
   12573    12144    12189 1
   12574    12145    12146 1
   12575    12145    12190 1
   12576    12145    12191 1
   12577    12146    12147 1
   12578    12146    12192 1
   12579    12146    12193 1
   12580    12147    12148 1
   12581    12147    12194 1
   12582    12147    12195 1
   12583    12148    12149 1
   12584    12148    12196 1
   12585    12148    12197 1
   12586    12149    12150 1
   12587    12149    12198 1
   12588    12149    12199 1
   12589    12150    12151 1
   12590    12150    12200 1
   12591    12150    12201 1
   12592    12151    12152 1
   12593    12151    12202 1
   12594    12151    12203 1
   12595    12152    12153 1
   12596    12152    12161 1
   12597    12152    12204 1
   12598    12153    12154 1
   12599    12153    12205 1
   12600    12153    12206 1
   12601    12154    12155 1
   12602    12154    12207 1
   12603    12154    12208 1
   12604    12155    12156 1
   12605    12155    12209 1
   12606    12155    12210 1
   12607    12156    12157 1
   12608    12156    12211 1
   12609    12156    12212 1
   12610    12157    12158 1
   12611    12157    12213 1
   12612    12157    12214 1
   12613    12158    12159 1
   12614    12158    12215 1
   12615    12158    12216 1
   12616    12159    12160 1
   12617    12159    12217 1
   12618    12159    12218 1
   12619    12160    12219 1
   12620    12160    12220 1
   12621    12160    12221 1
   12622    12161    12162 1
   12623    12161    12222 1
   12624    12161    12223 1
   12625    12162    12163 1
   12626    12163    12164 1
   12627    12163    12224 1
   12628    12163    12225 1
   12629    12164    12165 1
   12630    12164    12173 1
   12631    12164    12226 1
   12632    12165    12166 1
   12633    12165    12227 1
   12634    12165    12228 1
   12635    12166    12167 1
   12636    12166    12229 1
   12637    12166    12230 1
   12638    12167    12168 1
   12639    12167    12231 1
   12640    12167    12232 1
   12641    12168    12169 1
   12642    12168    12233 1
   12643    12168    12234 1
   12644    12169    12170 1
   12645    12169    12235 1
   12646    12169    12236 1
   12647    12170    12171 1
   12648    12170    12237 1
   12649    12170    12238 1
   12650    12171    12172 1
   12651    12171    12239 1
   12652    12171    12240 1
   12653    12172    12241 1
   12654    12172    12242 1
   12655    12172    12243 1
   12656    12173    12174 1
   12657    12173    12244 1
   12658    12173    12245 1
   12659    12174    12175 1
   12660    12174    12246 1
   12661    12174    12247 1
   12662    12175    12176 1
   12663    12175    12248 1
   12664    12175    12249 1
   12665    12176    12177 1
   12666    12176    12250 1
   12667    12176    12251 1
   12668    12177    12178 1
   12669    12177    12252 1
   12670    12177    12253 1
   12671    12178    12179 1
   12672    12178    12254 1
   12673    12178    12255 1
   12674    12179    12180 1
   12675    12179    12256 1
   12676    12179    12257 1
   12677    12180    12181 1
   12678    12180    12258 1
   12679    12180    12259 1
   12680    12181    12182 1
   12681    12181    12260 1
   12682    12181    12261 1
   12683    12182    12262 1
   12684    12182    12263 1
   12685    12182    12264 1
   12686    12265    12266 1
   12687    12265    12272 1
   12688    12265    12308 1
   12689    12266    12267 1
   12690    12266    12270 1
   12691    12267    12268 1
   12692    12267    12271 1
   12693    12268    12269 1
   12694    12269    12270 1
   12695    12269    12280 1
   12696    12270    12276 1
   12697    12271    12272 1
   12698    12271    12275 1
   12699    12272    12273 1
   12700    12273    12274 1
   12701    12273    12277 1
   12702    12274    12275 1
   12703    12278    12279 1
   12704    12278    12286 1
   12705    12279    12280 1
   12706    12279    12287 1
   12707    12280    12281 1
   12708    12281    12282 1
   12709    12281    12285 1
   12710    12282    12283 1
   12711    12283    12284 1
   12712    12284    12285 1
   12713    12285    12286 1
   12714    12286    12420 1
   12715    12288    12289 1
   12716    12288    12329 1
   12717    12288    12330 1
   12718    12288    12331 1
   12719    12289    12290 1
   12720    12289    12332 1
   12721    12289    12333 1
   12722    12290    12291 1
   12723    12290    12334 1
   12724    12290    12335 1
   12725    12291    12292 1
   12726    12291    12336 1
   12727    12291    12337 1
   12728    12292    12293 1
   12729    12292    12338 1
   12730    12292    12339 1
   12731    12293    12294 1
   12732    12293    12340 1
   12733    12293    12341 1
   12734    12294    12295 1
   12735    12294    12342 1
   12736    12294    12343 1
   12737    12295    12296 1
   12738    12295    12344 1
   12739    12295    12345 1
   12740    12296    12297 1
   12741    12296    12346 1
   12742    12296    12347 1
   12743    12297    12298 1
   12744    12297    12348 1
   12745    12297    12349 1
   12746    12298    12299 1
   12747    12298    12307 1
   12748    12298    12350 1
   12749    12299    12300 1
   12750    12299    12351 1
   12751    12299    12352 1
   12752    12300    12301 1
   12753    12300    12353 1
   12754    12300    12354 1
   12755    12301    12302 1
   12756    12301    12355 1
   12757    12301    12356 1
   12758    12302    12303 1
   12759    12302    12357 1
   12760    12302    12358 1
   12761    12303    12304 1
   12762    12303    12359 1
   12763    12303    12360 1
   12764    12304    12305 1
   12765    12304    12361 1
   12766    12304    12362 1
   12767    12305    12306 1
   12768    12305    12363 1
   12769    12305    12364 1
   12770    12306    12365 1
   12771    12306    12366 1
   12772    12306    12367 1
   12773    12307    12308 1
   12774    12307    12368 1
   12775    12307    12369 1
   12776    12308    12309 1
   12777    12309    12310 1
   12778    12309    12370 1
   12779    12309    12371 1
   12780    12310    12311 1
   12781    12310    12319 1
   12782    12310    12372 1
   12783    12311    12312 1
   12784    12311    12373 1
   12785    12311    12374 1
   12786    12312    12313 1
   12787    12312    12375 1
   12788    12312    12376 1
   12789    12313    12314 1
   12790    12313    12377 1
   12791    12313    12378 1
   12792    12314    12315 1
   12793    12314    12379 1
   12794    12314    12380 1
   12795    12315    12316 1
   12796    12315    12381 1
   12797    12315    12382 1
   12798    12316    12317 1
   12799    12316    12383 1
   12800    12316    12384 1
   12801    12317    12318 1
   12802    12317    12385 1
   12803    12317    12386 1
   12804    12318    12387 1
   12805    12318    12388 1
   12806    12318    12389 1
   12807    12319    12320 1
   12808    12319    12390 1
   12809    12319    12391 1
   12810    12320    12321 1
   12811    12320    12392 1
   12812    12320    12393 1
   12813    12321    12322 1
   12814    12321    12394 1
   12815    12321    12395 1
   12816    12322    12323 1
   12817    12322    12396 1
   12818    12322    12397 1
   12819    12323    12324 1
   12820    12323    12398 1
   12821    12323    12399 1
   12822    12324    12325 1
   12823    12324    12400 1
   12824    12324    12401 1
   12825    12325    12326 1
   12826    12325    12402 1
   12827    12325    12403 1
   12828    12326    12327 1
   12829    12326    12404 1
   12830    12326    12405 1
   12831    12327    12328 1
   12832    12327    12406 1
   12833    12327    12407 1
   12834    12328    12408 1
   12835    12328    12409 1
   12836    12328    12410 1
   12837    12411    12412 1
   12838    12411    12418 1
   12839    12411    12454 1
   12840    12412    12413 1
   12841    12412    12416 1
   12842    12413    12414 1
   12843    12413    12417 1
   12844    12414    12415 1
   12845    12415    12416 1
   12846    12415    12426 1
   12847    12416    12422 1
   12848    12417    12418 1
   12849    12417    12421 1
   12850    12418    12419 1
   12851    12419    12420 1
   12852    12419    12423 1
   12853    12420    12421 1
   12854    12424    12425 1
   12855    12424    12432 1
   12856    12425    12426 1
   12857    12425    12433 1
   12858    12426    12427 1
   12859    12427    12428 1
   12860    12427    12431 1
   12861    12428    12429 1
   12862    12429    12430 1
   12863    12430    12431 1
   12864    12431    12432 1
   12865    12432    12566 1
   12866    12434    12435 1
   12867    12434    12475 1
   12868    12434    12476 1
   12869    12434    12477 1
   12870    12435    12436 1
   12871    12435    12478 1
   12872    12435    12479 1
   12873    12436    12437 1
   12874    12436    12480 1
   12875    12436    12481 1
   12876    12437    12438 1
   12877    12437    12482 1
   12878    12437    12483 1
   12879    12438    12439 1
   12880    12438    12484 1
   12881    12438    12485 1
   12882    12439    12440 1
   12883    12439    12486 1
   12884    12439    12487 1
   12885    12440    12441 1
   12886    12440    12488 1
   12887    12440    12489 1
   12888    12441    12442 1
   12889    12441    12490 1
   12890    12441    12491 1
   12891    12442    12443 1
   12892    12442    12492 1
   12893    12442    12493 1
   12894    12443    12444 1
   12895    12443    12494 1
   12896    12443    12495 1
   12897    12444    12445 1
   12898    12444    12453 1
   12899    12444    12496 1
   12900    12445    12446 1
   12901    12445    12497 1
   12902    12445    12498 1
   12903    12446    12447 1
   12904    12446    12499 1
   12905    12446    12500 1
   12906    12447    12448 1
   12907    12447    12501 1
   12908    12447    12502 1
   12909    12448    12449 1
   12910    12448    12503 1
   12911    12448    12504 1
   12912    12449    12450 1
   12913    12449    12505 1
   12914    12449    12506 1
   12915    12450    12451 1
   12916    12450    12507 1
   12917    12450    12508 1
   12918    12451    12452 1
   12919    12451    12509 1
   12920    12451    12510 1
   12921    12452    12511 1
   12922    12452    12512 1
   12923    12452    12513 1
   12924    12453    12454 1
   12925    12453    12514 1
   12926    12453    12515 1
   12927    12454    12455 1
   12928    12455    12456 1
   12929    12455    12516 1
   12930    12455    12517 1
   12931    12456    12457 1
   12932    12456    12465 1
   12933    12456    12518 1
   12934    12457    12458 1
   12935    12457    12519 1
   12936    12457    12520 1
   12937    12458    12459 1
   12938    12458    12521 1
   12939    12458    12522 1
   12940    12459    12460 1
   12941    12459    12523 1
   12942    12459    12524 1
   12943    12460    12461 1
   12944    12460    12525 1
   12945    12460    12526 1
   12946    12461    12462 1
   12947    12461    12527 1
   12948    12461    12528 1
   12949    12462    12463 1
   12950    12462    12529 1
   12951    12462    12530 1
   12952    12463    12464 1
   12953    12463    12531 1
   12954    12463    12532 1
   12955    12464    12533 1
   12956    12464    12534 1
   12957    12464    12535 1
   12958    12465    12466 1
   12959    12465    12536 1
   12960    12465    12537 1
   12961    12466    12467 1
   12962    12466    12538 1
   12963    12466    12539 1
   12964    12467    12468 1
   12965    12467    12540 1
   12966    12467    12541 1
   12967    12468    12469 1
   12968    12468    12542 1
   12969    12468    12543 1
   12970    12469    12470 1
   12971    12469    12544 1
   12972    12469    12545 1
   12973    12470    12471 1
   12974    12470    12546 1
   12975    12470    12547 1
   12976    12471    12472 1
   12977    12471    12548 1
   12978    12471    12549 1
   12979    12472    12473 1
   12980    12472    12550 1
   12981    12472    12551 1
   12982    12473    12474 1
   12983    12473    12552 1
   12984    12473    12553 1
   12985    12474    12554 1
   12986    12474    12555 1
   12987    12474    12556 1
   12988    12557    12558 1
   12989    12557    12564 1
   12990    12557    12600 1
   12991    12558    12559 1
   12992    12558    12562 1
   12993    12559    12560 1
   12994    12559    12563 1
   12995    12560    12561 1
   12996    12561    12562 1
   12997    12561    12572 1
   12998    12562    12568 1
   12999    12563    12564 1
   13000    12563    12567 1
   13001    12564    12565 1
   13002    12565    12566 1
   13003    12565    12569 1
   13004    12566    12567 1
   13005    12570    12571 1
   13006    12570    12578 1
   13007    12571    12572 1
   13008    12571    12579 1
   13009    12572    12573 1
   13010    12573    12574 1
   13011    12573    12577 1
   13012    12574    12575 1
   13013    12575    12576 1
   13014    12576    12577 1
   13015    12577    12578 1
   13016    12578    12712 1
   13017    12580    12581 1
   13018    12580    12621 1
   13019    12580    12622 1
   13020    12580    12623 1
   13021    12581    12582 1
   13022    12581    12624 1
   13023    12581    12625 1
   13024    12582    12583 1
   13025    12582    12626 1
   13026    12582    12627 1
   13027    12583    12584 1
   13028    12583    12628 1
   13029    12583    12629 1
   13030    12584    12585 1
   13031    12584    12630 1
   13032    12584    12631 1
   13033    12585    12586 1
   13034    12585    12632 1
   13035    12585    12633 1
   13036    12586    12587 1
   13037    12586    12634 1
   13038    12586    12635 1
   13039    12587    12588 1
   13040    12587    12636 1
   13041    12587    12637 1
   13042    12588    12589 1
   13043    12588    12638 1
   13044    12588    12639 1
   13045    12589    12590 1
   13046    12589    12640 1
   13047    12589    12641 1
   13048    12590    12591 1
   13049    12590    12599 1
   13050    12590    12642 1
   13051    12591    12592 1
   13052    12591    12643 1
   13053    12591    12644 1
   13054    12592    12593 1
   13055    12592    12645 1
   13056    12592    12646 1
   13057    12593    12594 1
   13058    12593    12647 1
   13059    12593    12648 1
   13060    12594    12595 1
   13061    12594    12649 1
   13062    12594    12650 1
   13063    12595    12596 1
   13064    12595    12651 1
   13065    12595    12652 1
   13066    12596    12597 1
   13067    12596    12653 1
   13068    12596    12654 1
   13069    12597    12598 1
   13070    12597    12655 1
   13071    12597    12656 1
   13072    12598    12657 1
   13073    12598    12658 1
   13074    12598    12659 1
   13075    12599    12600 1
   13076    12599    12660 1
   13077    12599    12661 1
   13078    12600    12601 1
   13079    12601    12602 1
   13080    12601    12662 1
   13081    12601    12663 1
   13082    12602    12603 1
   13083    12602    12611 1
   13084    12602    12664 1
   13085    12603    12604 1
   13086    12603    12665 1
   13087    12603    12666 1
   13088    12604    12605 1
   13089    12604    12667 1
   13090    12604    12668 1
   13091    12605    12606 1
   13092    12605    12669 1
   13093    12605    12670 1
   13094    12606    12607 1
   13095    12606    12671 1
   13096    12606    12672 1
   13097    12607    12608 1
   13098    12607    12673 1
   13099    12607    12674 1
   13100    12608    12609 1
   13101    12608    12675 1
   13102    12608    12676 1
   13103    12609    12610 1
   13104    12609    12677 1
   13105    12609    12678 1
   13106    12610    12679 1
   13107    12610    12680 1
   13108    12610    12681 1
   13109    12611    12612 1
   13110    12611    12682 1
   13111    12611    12683 1
   13112    12612    12613 1
   13113    12612    12684 1
   13114    12612    12685 1
   13115    12613    12614 1
   13116    12613    12686 1
   13117    12613    12687 1
   13118    12614    12615 1
   13119    12614    12688 1
   13120    12614    12689 1
   13121    12615    12616 1
   13122    12615    12690 1
   13123    12615    12691 1
   13124    12616    12617 1
   13125    12616    12692 1
   13126    12616    12693 1
   13127    12617    12618 1
   13128    12617    12694 1
   13129    12617    12695 1
   13130    12618    12619 1
   13131    12618    12696 1
   13132    12618    12697 1
   13133    12619    12620 1
   13134    12619    12698 1
   13135    12619    12699 1
   13136    12620    12700 1
   13137    12620    12701 1
   13138    12620    12702 1
   13139    12703    12704 1
   13140    12703    12710 1
   13141    12703    12746 1
   13142    12704    12705 1
   13143    12704    12708 1
   13144    12705    12706 1
   13145    12705    12709 1
   13146    12706    12707 1
   13147    12707    12708 1
   13148    12707    12718 1
   13149    12708    12714 1
   13150    12709    12710 1
   13151    12709    12713 1
   13152    12710    12711 1
   13153    12711    12712 1
   13154    12711    12715 1
   13155    12712    12713 1
   13156    12716    12717 1
   13157    12716    12724 1
   13158    12717    12718 1
   13159    12717    12725 1
   13160    12718    12719 1
   13161    12719    12720 1
   13162    12719    12723 1
   13163    12720    12721 1
   13164    12721    12722 1
   13165    12722    12723 1
   13166    12723    12724 1
   13167    12724    12858 1
   13168    12726    12727 1
   13169    12726    12767 1
   13170    12726    12768 1
   13171    12726    12769 1
   13172    12727    12728 1
   13173    12727    12770 1
   13174    12727    12771 1
   13175    12728    12729 1
   13176    12728    12772 1
   13177    12728    12773 1
   13178    12729    12730 1
   13179    12729    12774 1
   13180    12729    12775 1
   13181    12730    12731 1
   13182    12730    12776 1
   13183    12730    12777 1
   13184    12731    12732 1
   13185    12731    12778 1
   13186    12731    12779 1
   13187    12732    12733 1
   13188    12732    12780 1
   13189    12732    12781 1
   13190    12733    12734 1
   13191    12733    12782 1
   13192    12733    12783 1
   13193    12734    12735 1
   13194    12734    12784 1
   13195    12734    12785 1
   13196    12735    12736 1
   13197    12735    12786 1
   13198    12735    12787 1
   13199    12736    12737 1
   13200    12736    12745 1
   13201    12736    12788 1
   13202    12737    12738 1
   13203    12737    12789 1
   13204    12737    12790 1
   13205    12738    12739 1
   13206    12738    12791 1
   13207    12738    12792 1
   13208    12739    12740 1
   13209    12739    12793 1
   13210    12739    12794 1
   13211    12740    12741 1
   13212    12740    12795 1
   13213    12740    12796 1
   13214    12741    12742 1
   13215    12741    12797 1
   13216    12741    12798 1
   13217    12742    12743 1
   13218    12742    12799 1
   13219    12742    12800 1
   13220    12743    12744 1
   13221    12743    12801 1
   13222    12743    12802 1
   13223    12744    12803 1
   13224    12744    12804 1
   13225    12744    12805 1
   13226    12745    12746 1
   13227    12745    12806 1
   13228    12745    12807 1
   13229    12746    12747 1
   13230    12747    12748 1
   13231    12747    12808 1
   13232    12747    12809 1
   13233    12748    12749 1
   13234    12748    12757 1
   13235    12748    12810 1
   13236    12749    12750 1
   13237    12749    12811 1
   13238    12749    12812 1
   13239    12750    12751 1
   13240    12750    12813 1
   13241    12750    12814 1
   13242    12751    12752 1
   13243    12751    12815 1
   13244    12751    12816 1
   13245    12752    12753 1
   13246    12752    12817 1
   13247    12752    12818 1
   13248    12753    12754 1
   13249    12753    12819 1
   13250    12753    12820 1
   13251    12754    12755 1
   13252    12754    12821 1
   13253    12754    12822 1
   13254    12755    12756 1
   13255    12755    12823 1
   13256    12755    12824 1
   13257    12756    12825 1
   13258    12756    12826 1
   13259    12756    12827 1
   13260    12757    12758 1
   13261    12757    12828 1
   13262    12757    12829 1
   13263    12758    12759 1
   13264    12758    12830 1
   13265    12758    12831 1
   13266    12759    12760 1
   13267    12759    12832 1
   13268    12759    12833 1
   13269    12760    12761 1
   13270    12760    12834 1
   13271    12760    12835 1
   13272    12761    12762 1
   13273    12761    12836 1
   13274    12761    12837 1
   13275    12762    12763 1
   13276    12762    12838 1
   13277    12762    12839 1
   13278    12763    12764 1
   13279    12763    12840 1
   13280    12763    12841 1
   13281    12764    12765 1
   13282    12764    12842 1
   13283    12764    12843 1
   13284    12765    12766 1
   13285    12765    12844 1
   13286    12765    12845 1
   13287    12766    12846 1
   13288    12766    12847 1
   13289    12766    12848 1
   13290    12849    12850 1
   13291    12849    12856 1
   13292    12849    12892 1
   13293    12850    12851 1
   13294    12850    12854 1
   13295    12851    12852 1
   13296    12851    12855 1
   13297    12852    12853 1
   13298    12853    12854 1
   13299    12853    12864 1
   13300    12854    12860 1
   13301    12855    12856 1
   13302    12855    12859 1
   13303    12856    12857 1
   13304    12857    12858 1
   13305    12857    12861 1
   13306    12858    12859 1
   13307    12862    12863 1
   13308    12862    12870 1
   13309    12863    12864 1
   13310    12863    12871 1
   13311    12864    12865 1
   13312    12865    12866 1
   13313    12865    12869 1
   13314    12866    12867 1
   13315    12867    12868 1
   13316    12868    12869 1
   13317    12869    12870 1
   13318    12870    13004 1
   13319    12872    12873 1
   13320    12872    12913 1
   13321    12872    12914 1
   13322    12872    12915 1
   13323    12873    12874 1
   13324    12873    12916 1
   13325    12873    12917 1
   13326    12874    12875 1
   13327    12874    12918 1
   13328    12874    12919 1
   13329    12875    12876 1
   13330    12875    12920 1
   13331    12875    12921 1
   13332    12876    12877 1
   13333    12876    12922 1
   13334    12876    12923 1
   13335    12877    12878 1
   13336    12877    12924 1
   13337    12877    12925 1
   13338    12878    12879 1
   13339    12878    12926 1
   13340    12878    12927 1
   13341    12879    12880 1
   13342    12879    12928 1
   13343    12879    12929 1
   13344    12880    12881 1
   13345    12880    12930 1
   13346    12880    12931 1
   13347    12881    12882 1
   13348    12881    12932 1
   13349    12881    12933 1
   13350    12882    12883 1
   13351    12882    12891 1
   13352    12882    12934 1
   13353    12883    12884 1
   13354    12883    12935 1
   13355    12883    12936 1
   13356    12884    12885 1
   13357    12884    12937 1
   13358    12884    12938 1
   13359    12885    12886 1
   13360    12885    12939 1
   13361    12885    12940 1
   13362    12886    12887 1
   13363    12886    12941 1
   13364    12886    12942 1
   13365    12887    12888 1
   13366    12887    12943 1
   13367    12887    12944 1
   13368    12888    12889 1
   13369    12888    12945 1
   13370    12888    12946 1
   13371    12889    12890 1
   13372    12889    12947 1
   13373    12889    12948 1
   13374    12890    12949 1
   13375    12890    12950 1
   13376    12890    12951 1
   13377    12891    12892 1
   13378    12891    12952 1
   13379    12891    12953 1
   13380    12892    12893 1
   13381    12893    12894 1
   13382    12893    12954 1
   13383    12893    12955 1
   13384    12894    12895 1
   13385    12894    12903 1
   13386    12894    12956 1
   13387    12895    12896 1
   13388    12895    12957 1
   13389    12895    12958 1
   13390    12896    12897 1
   13391    12896    12959 1
   13392    12896    12960 1
   13393    12897    12898 1
   13394    12897    12961 1
   13395    12897    12962 1
   13396    12898    12899 1
   13397    12898    12963 1
   13398    12898    12964 1
   13399    12899    12900 1
   13400    12899    12965 1
   13401    12899    12966 1
   13402    12900    12901 1
   13403    12900    12967 1
   13404    12900    12968 1
   13405    12901    12902 1
   13406    12901    12969 1
   13407    12901    12970 1
   13408    12902    12971 1
   13409    12902    12972 1
   13410    12902    12973 1
   13411    12903    12904 1
   13412    12903    12974 1
   13413    12903    12975 1
   13414    12904    12905 1
   13415    12904    12976 1
   13416    12904    12977 1
   13417    12905    12906 1
   13418    12905    12978 1
   13419    12905    12979 1
   13420    12906    12907 1
   13421    12906    12980 1
   13422    12906    12981 1
   13423    12907    12908 1
   13424    12907    12982 1
   13425    12907    12983 1
   13426    12908    12909 1
   13427    12908    12984 1
   13428    12908    12985 1
   13429    12909    12910 1
   13430    12909    12986 1
   13431    12909    12987 1
   13432    12910    12911 1
   13433    12910    12988 1
   13434    12910    12989 1
   13435    12911    12912 1
   13436    12911    12990 1
   13437    12911    12991 1
   13438    12912    12992 1
   13439    12912    12993 1
   13440    12912    12994 1
   13441    12995    12996 1
   13442    12995    13002 1
   13443    12995    13038 1
   13444    12996    12997 1
   13445    12996    13000 1
   13446    12997    12998 1
   13447    12997    13001 1
   13448    12998    12999 1
   13449    12999    13000 1
   13450    12999    13010 1
   13451    13000    13006 1
   13452    13001    13002 1
   13453    13001    13005 1
   13454    13002    13003 1
   13455    13003    13004 1
   13456    13003    13007 1
   13457    13004    13005 1
   13458    13008    13009 1
   13459    13008    13016 1
   13460    13009    13010 1
   13461    13009    13017 1
   13462    13010    13011 1
   13463    13011    13012 1
   13464    13011    13015 1
   13465    13012    13013 1
   13466    13013    13014 1
   13467    13014    13015 1
   13468    13015    13016 1
   13469    13016    13150 1
   13470    13018    13019 1
   13471    13018    13059 1
   13472    13018    13060 1
   13473    13018    13061 1
   13474    13019    13020 1
   13475    13019    13062 1
   13476    13019    13063 1
   13477    13020    13021 1
   13478    13020    13064 1
   13479    13020    13065 1
   13480    13021    13022 1
   13481    13021    13066 1
   13482    13021    13067 1
   13483    13022    13023 1
   13484    13022    13068 1
   13485    13022    13069 1
   13486    13023    13024 1
   13487    13023    13070 1
   13488    13023    13071 1
   13489    13024    13025 1
   13490    13024    13072 1
   13491    13024    13073 1
   13492    13025    13026 1
   13493    13025    13074 1
   13494    13025    13075 1
   13495    13026    13027 1
   13496    13026    13076 1
   13497    13026    13077 1
   13498    13027    13028 1
   13499    13027    13078 1
   13500    13027    13079 1
   13501    13028    13029 1
   13502    13028    13037 1
   13503    13028    13080 1
   13504    13029    13030 1
   13505    13029    13081 1
   13506    13029    13082 1
   13507    13030    13031 1
   13508    13030    13083 1
   13509    13030    13084 1
   13510    13031    13032 1
   13511    13031    13085 1
   13512    13031    13086 1
   13513    13032    13033 1
   13514    13032    13087 1
   13515    13032    13088 1
   13516    13033    13034 1
   13517    13033    13089 1
   13518    13033    13090 1
   13519    13034    13035 1
   13520    13034    13091 1
   13521    13034    13092 1
   13522    13035    13036 1
   13523    13035    13093 1
   13524    13035    13094 1
   13525    13036    13095 1
   13526    13036    13096 1
   13527    13036    13097 1
   13528    13037    13038 1
   13529    13037    13098 1
   13530    13037    13099 1
   13531    13038    13039 1
   13532    13039    13040 1
   13533    13039    13100 1
   13534    13039    13101 1
   13535    13040    13041 1
   13536    13040    13049 1
   13537    13040    13102 1
   13538    13041    13042 1
   13539    13041    13103 1
   13540    13041    13104 1
   13541    13042    13043 1
   13542    13042    13105 1
   13543    13042    13106 1
   13544    13043    13044 1
   13545    13043    13107 1
   13546    13043    13108 1
   13547    13044    13045 1
   13548    13044    13109 1
   13549    13044    13110 1
   13550    13045    13046 1
   13551    13045    13111 1
   13552    13045    13112 1
   13553    13046    13047 1
   13554    13046    13113 1
   13555    13046    13114 1
   13556    13047    13048 1
   13557    13047    13115 1
   13558    13047    13116 1
   13559    13048    13117 1
   13560    13048    13118 1
   13561    13048    13119 1
   13562    13049    13050 1
   13563    13049    13120 1
   13564    13049    13121 1
   13565    13050    13051 1
   13566    13050    13122 1
   13567    13050    13123 1
   13568    13051    13052 1
   13569    13051    13124 1
   13570    13051    13125 1
   13571    13052    13053 1
   13572    13052    13126 1
   13573    13052    13127 1
   13574    13053    13054 1
   13575    13053    13128 1
   13576    13053    13129 1
   13577    13054    13055 1
   13578    13054    13130 1
   13579    13054    13131 1
   13580    13055    13056 1
   13581    13055    13132 1
   13582    13055    13133 1
   13583    13056    13057 1
   13584    13056    13134 1
   13585    13056    13135 1
   13586    13057    13058 1
   13587    13057    13136 1
   13588    13057    13137 1
   13589    13058    13138 1
   13590    13058    13139 1
   13591    13058    13140 1
   13592    13141    13142 1
   13593    13141    13148 1
   13594    13141    13184 1
   13595    13142    13143 1
   13596    13142    13146 1
   13597    13143    13144 1
   13598    13143    13147 1
   13599    13144    13145 1
   13600    13145    13146 1
   13601    13145    13156 1
   13602    13146    13152 1
   13603    13147    13148 1
   13604    13147    13151 1
   13605    13148    13149 1
   13606    13149    13150 1
   13607    13149    13153 1
   13608    13150    13151 1
   13609    13154    13155 1
   13610    13154    13162 1
   13611    13155    13156 1
   13612    13155    13163 1
   13613    13156    13157 1
   13614    13157    13158 1
   13615    13157    13161 1
   13616    13158    13159 1
   13617    13159    13160 1
   13618    13160    13161 1
   13619    13161    13162 1
   13620    13162    13296 1
   13621    13164    13165 1
   13622    13164    13205 1
   13623    13164    13206 1
   13624    13164    13207 1
   13625    13165    13166 1
   13626    13165    13208 1
   13627    13165    13209 1
   13628    13166    13167 1
   13629    13166    13210 1
   13630    13166    13211 1
   13631    13167    13168 1
   13632    13167    13212 1
   13633    13167    13213 1
   13634    13168    13169 1
   13635    13168    13214 1
   13636    13168    13215 1
   13637    13169    13170 1
   13638    13169    13216 1
   13639    13169    13217 1
   13640    13170    13171 1
   13641    13170    13218 1
   13642    13170    13219 1
   13643    13171    13172 1
   13644    13171    13220 1
   13645    13171    13221 1
   13646    13172    13173 1
   13647    13172    13222 1
   13648    13172    13223 1
   13649    13173    13174 1
   13650    13173    13224 1
   13651    13173    13225 1
   13652    13174    13175 1
   13653    13174    13183 1
   13654    13174    13226 1
   13655    13175    13176 1
   13656    13175    13227 1
   13657    13175    13228 1
   13658    13176    13177 1
   13659    13176    13229 1
   13660    13176    13230 1
   13661    13177    13178 1
   13662    13177    13231 1
   13663    13177    13232 1
   13664    13178    13179 1
   13665    13178    13233 1
   13666    13178    13234 1
   13667    13179    13180 1
   13668    13179    13235 1
   13669    13179    13236 1
   13670    13180    13181 1
   13671    13180    13237 1
   13672    13180    13238 1
   13673    13181    13182 1
   13674    13181    13239 1
   13675    13181    13240 1
   13676    13182    13241 1
   13677    13182    13242 1
   13678    13182    13243 1
   13679    13183    13184 1
   13680    13183    13244 1
   13681    13183    13245 1
   13682    13184    13185 1
   13683    13185    13186 1
   13684    13185    13246 1
   13685    13185    13247 1
   13686    13186    13187 1
   13687    13186    13195 1
   13688    13186    13248 1
   13689    13187    13188 1
   13690    13187    13249 1
   13691    13187    13250 1
   13692    13188    13189 1
   13693    13188    13251 1
   13694    13188    13252 1
   13695    13189    13190 1
   13696    13189    13253 1
   13697    13189    13254 1
   13698    13190    13191 1
   13699    13190    13255 1
   13700    13190    13256 1
   13701    13191    13192 1
   13702    13191    13257 1
   13703    13191    13258 1
   13704    13192    13193 1
   13705    13192    13259 1
   13706    13192    13260 1
   13707    13193    13194 1
   13708    13193    13261 1
   13709    13193    13262 1
   13710    13194    13263 1
   13711    13194    13264 1
   13712    13194    13265 1
   13713    13195    13196 1
   13714    13195    13266 1
   13715    13195    13267 1
   13716    13196    13197 1
   13717    13196    13268 1
   13718    13196    13269 1
   13719    13197    13198 1
   13720    13197    13270 1
   13721    13197    13271 1
   13722    13198    13199 1
   13723    13198    13272 1
   13724    13198    13273 1
   13725    13199    13200 1
   13726    13199    13274 1
   13727    13199    13275 1
   13728    13200    13201 1
   13729    13200    13276 1
   13730    13200    13277 1
   13731    13201    13202 1
   13732    13201    13278 1
   13733    13201    13279 1
   13734    13202    13203 1
   13735    13202    13280 1
   13736    13202    13281 1
   13737    13203    13204 1
   13738    13203    13282 1
   13739    13203    13283 1
   13740    13204    13284 1
   13741    13204    13285 1
   13742    13204    13286 1
   13743    13287    13288 1
   13744    13287    13294 1
   13745    13287    13330 1
   13746    13288    13289 1
   13747    13288    13292 1
   13748    13289    13290 1
   13749    13289    13293 1
   13750    13290    13291 1
   13751    13291    13292 1
   13752    13291    13302 1
   13753    13292    13298 1
   13754    13293    13294 1
   13755    13293    13297 1
   13756    13294    13295 1
   13757    13295    13296 1
   13758    13295    13299 1
   13759    13296    13297 1
   13760    13300    13301 1
   13761    13300    13308 1
   13762    13301    13302 1
   13763    13301    13309 1
   13764    13302    13303 1
   13765    13303    13304 1
   13766    13303    13307 1
   13767    13304    13305 1
   13768    13305    13306 1
   13769    13306    13307 1
   13770    13307    13308 1
   13771    13308    13442 1
   13772    13310    13311 1
   13773    13310    13351 1
   13774    13310    13352 1
   13775    13310    13353 1
   13776    13311    13312 1
   13777    13311    13354 1
   13778    13311    13355 1
   13779    13312    13313 1
   13780    13312    13356 1
   13781    13312    13357 1
   13782    13313    13314 1
   13783    13313    13358 1
   13784    13313    13359 1
   13785    13314    13315 1
   13786    13314    13360 1
   13787    13314    13361 1
   13788    13315    13316 1
   13789    13315    13362 1
   13790    13315    13363 1
   13791    13316    13317 1
   13792    13316    13364 1
   13793    13316    13365 1
   13794    13317    13318 1
   13795    13317    13366 1
   13796    13317    13367 1
   13797    13318    13319 1
   13798    13318    13368 1
   13799    13318    13369 1
   13800    13319    13320 1
   13801    13319    13370 1
   13802    13319    13371 1
   13803    13320    13321 1
   13804    13320    13329 1
   13805    13320    13372 1
   13806    13321    13322 1
   13807    13321    13373 1
   13808    13321    13374 1
   13809    13322    13323 1
   13810    13322    13375 1
   13811    13322    13376 1
   13812    13323    13324 1
   13813    13323    13377 1
   13814    13323    13378 1
   13815    13324    13325 1
   13816    13324    13379 1
   13817    13324    13380 1
   13818    13325    13326 1
   13819    13325    13381 1
   13820    13325    13382 1
   13821    13326    13327 1
   13822    13326    13383 1
   13823    13326    13384 1
   13824    13327    13328 1
   13825    13327    13385 1
   13826    13327    13386 1
   13827    13328    13387 1
   13828    13328    13388 1
   13829    13328    13389 1
   13830    13329    13330 1
   13831    13329    13390 1
   13832    13329    13391 1
   13833    13330    13331 1
   13834    13331    13332 1
   13835    13331    13392 1
   13836    13331    13393 1
   13837    13332    13333 1
   13838    13332    13341 1
   13839    13332    13394 1
   13840    13333    13334 1
   13841    13333    13395 1
   13842    13333    13396 1
   13843    13334    13335 1
   13844    13334    13397 1
   13845    13334    13398 1
   13846    13335    13336 1
   13847    13335    13399 1
   13848    13335    13400 1
   13849    13336    13337 1
   13850    13336    13401 1
   13851    13336    13402 1
   13852    13337    13338 1
   13853    13337    13403 1
   13854    13337    13404 1
   13855    13338    13339 1
   13856    13338    13405 1
   13857    13338    13406 1
   13858    13339    13340 1
   13859    13339    13407 1
   13860    13339    13408 1
   13861    13340    13409 1
   13862    13340    13410 1
   13863    13340    13411 1
   13864    13341    13342 1
   13865    13341    13412 1
   13866    13341    13413 1
   13867    13342    13343 1
   13868    13342    13414 1
   13869    13342    13415 1
   13870    13343    13344 1
   13871    13343    13416 1
   13872    13343    13417 1
   13873    13344    13345 1
   13874    13344    13418 1
   13875    13344    13419 1
   13876    13345    13346 1
   13877    13345    13420 1
   13878    13345    13421 1
   13879    13346    13347 1
   13880    13346    13422 1
   13881    13346    13423 1
   13882    13347    13348 1
   13883    13347    13424 1
   13884    13347    13425 1
   13885    13348    13349 1
   13886    13348    13426 1
   13887    13348    13427 1
   13888    13349    13350 1
   13889    13349    13428 1
   13890    13349    13429 1
   13891    13350    13430 1
   13892    13350    13431 1
   13893    13350    13432 1
   13894    13433    13434 1
   13895    13433    13440 1
   13896    13433    13476 1
   13897    13434    13435 1
   13898    13434    13438 1
   13899    13435    13436 1
   13900    13435    13439 1
   13901    13436    13437 1
   13902    13437    13438 1
   13903    13437    13448 1
   13904    13438    13444 1
   13905    13439    13440 1
   13906    13439    13443 1
   13907    13440    13441 1
   13908    13441    13442 1
   13909    13441    13445 1
   13910    13442    13443 1
   13911    13446    13447 1
   13912    13446    13454 1
   13913    13447    13448 1
   13914    13447    13455 1
   13915    13448    13449 1
   13916    13449    13450 1
   13917    13449    13453 1
   13918    13450    13451 1
   13919    13451    13452 1
   13920    13452    13453 1
   13921    13453    13454 1
   13922    13454    13588 1
   13923    13456    13457 1
   13924    13456    13497 1
   13925    13456    13498 1
   13926    13456    13499 1
   13927    13457    13458 1
   13928    13457    13500 1
   13929    13457    13501 1
   13930    13458    13459 1
   13931    13458    13502 1
   13932    13458    13503 1
   13933    13459    13460 1
   13934    13459    13504 1
   13935    13459    13505 1
   13936    13460    13461 1
   13937    13460    13506 1
   13938    13460    13507 1
   13939    13461    13462 1
   13940    13461    13508 1
   13941    13461    13509 1
   13942    13462    13463 1
   13943    13462    13510 1
   13944    13462    13511 1
   13945    13463    13464 1
   13946    13463    13512 1
   13947    13463    13513 1
   13948    13464    13465 1
   13949    13464    13514 1
   13950    13464    13515 1
   13951    13465    13466 1
   13952    13465    13516 1
   13953    13465    13517 1
   13954    13466    13467 1
   13955    13466    13475 1
   13956    13466    13518 1
   13957    13467    13468 1
   13958    13467    13519 1
   13959    13467    13520 1
   13960    13468    13469 1
   13961    13468    13521 1
   13962    13468    13522 1
   13963    13469    13470 1
   13964    13469    13523 1
   13965    13469    13524 1
   13966    13470    13471 1
   13967    13470    13525 1
   13968    13470    13526 1
   13969    13471    13472 1
   13970    13471    13527 1
   13971    13471    13528 1
   13972    13472    13473 1
   13973    13472    13529 1
   13974    13472    13530 1
   13975    13473    13474 1
   13976    13473    13531 1
   13977    13473    13532 1
   13978    13474    13533 1
   13979    13474    13534 1
   13980    13474    13535 1
   13981    13475    13476 1
   13982    13475    13536 1
   13983    13475    13537 1
   13984    13476    13477 1
   13985    13477    13478 1
   13986    13477    13538 1
   13987    13477    13539 1
   13988    13478    13479 1
   13989    13478    13487 1
   13990    13478    13540 1
   13991    13479    13480 1
   13992    13479    13541 1
   13993    13479    13542 1
   13994    13480    13481 1
   13995    13480    13543 1
   13996    13480    13544 1
   13997    13481    13482 1
   13998    13481    13545 1
   13999    13481    13546 1
   14000    13482    13483 1
   14001    13482    13547 1
   14002    13482    13548 1
   14003    13483    13484 1
   14004    13483    13549 1
   14005    13483    13550 1
   14006    13484    13485 1
   14007    13484    13551 1
   14008    13484    13552 1
   14009    13485    13486 1
   14010    13485    13553 1
   14011    13485    13554 1
   14012    13486    13555 1
   14013    13486    13556 1
   14014    13486    13557 1
   14015    13487    13488 1
   14016    13487    13558 1
   14017    13487    13559 1
   14018    13488    13489 1
   14019    13488    13560 1
   14020    13488    13561 1
   14021    13489    13490 1
   14022    13489    13562 1
   14023    13489    13563 1
   14024    13490    13491 1
   14025    13490    13564 1
   14026    13490    13565 1
   14027    13491    13492 1
   14028    13491    13566 1
   14029    13491    13567 1
   14030    13492    13493 1
   14031    13492    13568 1
   14032    13492    13569 1
   14033    13493    13494 1
   14034    13493    13570 1
   14035    13493    13571 1
   14036    13494    13495 1
   14037    13494    13572 1
   14038    13494    13573 1
   14039    13495    13496 1
   14040    13495    13574 1
   14041    13495    13575 1
   14042    13496    13576 1
   14043    13496    13577 1
   14044    13496    13578 1
   14045    13579    13580 1
   14046    13579    13586 1
   14047    13579    13622 1
   14048    13580    13581 1
   14049    13580    13584 1
   14050    13581    13582 1
   14051    13581    13585 1
   14052    13582    13583 1
   14053    13583    13584 1
   14054    13583    13594 1
   14055    13584    13590 1
   14056    13585    13586 1
   14057    13585    13589 1
   14058    13586    13587 1
   14059    13587    13588 1
   14060    13587    13591 1
   14061    13588    13589 1
   14062    13592    13593 1
   14063    13592    13600 1
   14064    13593    13594 1
   14065    13593    13601 1
   14066    13594    13595 1
   14067    13595    13596 1
   14068    13595    13599 1
   14069    13596    13597 1
   14070    13597    13598 1
   14071    13598    13599 1
   14072    13599    13600 1
   14073    13600    13734 1
   14074    13602    13603 1
   14075    13602    13643 1
   14076    13602    13644 1
   14077    13602    13645 1
   14078    13603    13604 1
   14079    13603    13646 1
   14080    13603    13647 1
   14081    13604    13605 1
   14082    13604    13648 1
   14083    13604    13649 1
   14084    13605    13606 1
   14085    13605    13650 1
   14086    13605    13651 1
   14087    13606    13607 1
   14088    13606    13652 1
   14089    13606    13653 1
   14090    13607    13608 1
   14091    13607    13654 1
   14092    13607    13655 1
   14093    13608    13609 1
   14094    13608    13656 1
   14095    13608    13657 1
   14096    13609    13610 1
   14097    13609    13658 1
   14098    13609    13659 1
   14099    13610    13611 1
   14100    13610    13660 1
   14101    13610    13661 1
   14102    13611    13612 1
   14103    13611    13662 1
   14104    13611    13663 1
   14105    13612    13613 1
   14106    13612    13621 1
   14107    13612    13664 1
   14108    13613    13614 1
   14109    13613    13665 1
   14110    13613    13666 1
   14111    13614    13615 1
   14112    13614    13667 1
   14113    13614    13668 1
   14114    13615    13616 1
   14115    13615    13669 1
   14116    13615    13670 1
   14117    13616    13617 1
   14118    13616    13671 1
   14119    13616    13672 1
   14120    13617    13618 1
   14121    13617    13673 1
   14122    13617    13674 1
   14123    13618    13619 1
   14124    13618    13675 1
   14125    13618    13676 1
   14126    13619    13620 1
   14127    13619    13677 1
   14128    13619    13678 1
   14129    13620    13679 1
   14130    13620    13680 1
   14131    13620    13681 1
   14132    13621    13622 1
   14133    13621    13682 1
   14134    13621    13683 1
   14135    13622    13623 1
   14136    13623    13624 1
   14137    13623    13684 1
   14138    13623    13685 1
   14139    13624    13625 1
   14140    13624    13633 1
   14141    13624    13686 1
   14142    13625    13626 1
   14143    13625    13687 1
   14144    13625    13688 1
   14145    13626    13627 1
   14146    13626    13689 1
   14147    13626    13690 1
   14148    13627    13628 1
   14149    13627    13691 1
   14150    13627    13692 1
   14151    13628    13629 1
   14152    13628    13693 1
   14153    13628    13694 1
   14154    13629    13630 1
   14155    13629    13695 1
   14156    13629    13696 1
   14157    13630    13631 1
   14158    13630    13697 1
   14159    13630    13698 1
   14160    13631    13632 1
   14161    13631    13699 1
   14162    13631    13700 1
   14163    13632    13701 1
   14164    13632    13702 1
   14165    13632    13703 1
   14166    13633    13634 1
   14167    13633    13704 1
   14168    13633    13705 1
   14169    13634    13635 1
   14170    13634    13706 1
   14171    13634    13707 1
   14172    13635    13636 1
   14173    13635    13708 1
   14174    13635    13709 1
   14175    13636    13637 1
   14176    13636    13710 1
   14177    13636    13711 1
   14178    13637    13638 1
   14179    13637    13712 1
   14180    13637    13713 1
   14181    13638    13639 1
   14182    13638    13714 1
   14183    13638    13715 1
   14184    13639    13640 1
   14185    13639    13716 1
   14186    13639    13717 1
   14187    13640    13641 1
   14188    13640    13718 1
   14189    13640    13719 1
   14190    13641    13642 1
   14191    13641    13720 1
   14192    13641    13721 1
   14193    13642    13722 1
   14194    13642    13723 1
   14195    13642    13724 1
   14196    13725    13726 1
   14197    13725    13732 1
   14198    13725    13768 1
   14199    13726    13727 1
   14200    13726    13730 1
   14201    13727    13728 1
   14202    13727    13731 1
   14203    13728    13729 1
   14204    13729    13730 1
   14205    13729    13740 1
   14206    13730    13736 1
   14207    13731    13732 1
   14208    13731    13735 1
   14209    13732    13733 1
   14210    13733    13734 1
   14211    13733    13737 1
   14212    13734    13735 1
   14213    13738    13739 1
   14214    13738    13746 1
   14215    13739    13740 1
   14216    13739    13747 1
   14217    13740    13741 1
   14218    13741    13742 1
   14219    13741    13745 1
   14220    13742    13743 1
   14221    13743    13744 1
   14222    13744    13745 1
   14223    13745    13746 1
   14224    13746    13880 1
   14225    13748    13749 1
   14226    13748    13789 1
   14227    13748    13790 1
   14228    13748    13791 1
   14229    13749    13750 1
   14230    13749    13792 1
   14231    13749    13793 1
   14232    13750    13751 1
   14233    13750    13794 1
   14234    13750    13795 1
   14235    13751    13752 1
   14236    13751    13796 1
   14237    13751    13797 1
   14238    13752    13753 1
   14239    13752    13798 1
   14240    13752    13799 1
   14241    13753    13754 1
   14242    13753    13800 1
   14243    13753    13801 1
   14244    13754    13755 1
   14245    13754    13802 1
   14246    13754    13803 1
   14247    13755    13756 1
   14248    13755    13804 1
   14249    13755    13805 1
   14250    13756    13757 1
   14251    13756    13806 1
   14252    13756    13807 1
   14253    13757    13758 1
   14254    13757    13808 1
   14255    13757    13809 1
   14256    13758    13759 1
   14257    13758    13767 1
   14258    13758    13810 1
   14259    13759    13760 1
   14260    13759    13811 1
   14261    13759    13812 1
   14262    13760    13761 1
   14263    13760    13813 1
   14264    13760    13814 1
   14265    13761    13762 1
   14266    13761    13815 1
   14267    13761    13816 1
   14268    13762    13763 1
   14269    13762    13817 1
   14270    13762    13818 1
   14271    13763    13764 1
   14272    13763    13819 1
   14273    13763    13820 1
   14274    13764    13765 1
   14275    13764    13821 1
   14276    13764    13822 1
   14277    13765    13766 1
   14278    13765    13823 1
   14279    13765    13824 1
   14280    13766    13825 1
   14281    13766    13826 1
   14282    13766    13827 1
   14283    13767    13768 1
   14284    13767    13828 1
   14285    13767    13829 1
   14286    13768    13769 1
   14287    13769    13770 1
   14288    13769    13830 1
   14289    13769    13831 1
   14290    13770    13771 1
   14291    13770    13779 1
   14292    13770    13832 1
   14293    13771    13772 1
   14294    13771    13833 1
   14295    13771    13834 1
   14296    13772    13773 1
   14297    13772    13835 1
   14298    13772    13836 1
   14299    13773    13774 1
   14300    13773    13837 1
   14301    13773    13838 1
   14302    13774    13775 1
   14303    13774    13839 1
   14304    13774    13840 1
   14305    13775    13776 1
   14306    13775    13841 1
   14307    13775    13842 1
   14308    13776    13777 1
   14309    13776    13843 1
   14310    13776    13844 1
   14311    13777    13778 1
   14312    13777    13845 1
   14313    13777    13846 1
   14314    13778    13847 1
   14315    13778    13848 1
   14316    13778    13849 1
   14317    13779    13780 1
   14318    13779    13850 1
   14319    13779    13851 1
   14320    13780    13781 1
   14321    13780    13852 1
   14322    13780    13853 1
   14323    13781    13782 1
   14324    13781    13854 1
   14325    13781    13855 1
   14326    13782    13783 1
   14327    13782    13856 1
   14328    13782    13857 1
   14329    13783    13784 1
   14330    13783    13858 1
   14331    13783    13859 1
   14332    13784    13785 1
   14333    13784    13860 1
   14334    13784    13861 1
   14335    13785    13786 1
   14336    13785    13862 1
   14337    13785    13863 1
   14338    13786    13787 1
   14339    13786    13864 1
   14340    13786    13865 1
   14341    13787    13788 1
   14342    13787    13866 1
   14343    13787    13867 1
   14344    13788    13868 1
   14345    13788    13869 1
   14346    13788    13870 1
   14347    13871    13872 1
   14348    13871    13878 1
   14349    13871    13914 1
   14350    13872    13873 1
   14351    13872    13876 1
   14352    13873    13874 1
   14353    13873    13877 1
   14354    13874    13875 1
   14355    13875    13876 1
   14356    13875    13886 1
   14357    13876    13882 1
   14358    13877    13878 1
   14359    13877    13881 1
   14360    13878    13879 1
   14361    13879    13880 1
   14362    13879    13883 1
   14363    13880    13881 1
   14364    13884    13885 1
   14365    13884    13892 1
   14366    13885    13886 1
   14367    13885    13893 1
   14368    13886    13887 1
   14369    13887    13888 1
   14370    13887    13891 1
   14371    13888    13889 1
   14372    13889    13890 1
   14373    13890    13891 1
   14374    13891    13892 1
   14375    13892    14026 1
   14376    13894    13895 1
   14377    13894    13935 1
   14378    13894    13936 1
   14379    13894    13937 1
   14380    13895    13896 1
   14381    13895    13938 1
   14382    13895    13939 1
   14383    13896    13897 1
   14384    13896    13940 1
   14385    13896    13941 1
   14386    13897    13898 1
   14387    13897    13942 1
   14388    13897    13943 1
   14389    13898    13899 1
   14390    13898    13944 1
   14391    13898    13945 1
   14392    13899    13900 1
   14393    13899    13946 1
   14394    13899    13947 1
   14395    13900    13901 1
   14396    13900    13948 1
   14397    13900    13949 1
   14398    13901    13902 1
   14399    13901    13950 1
   14400    13901    13951 1
   14401    13902    13903 1
   14402    13902    13952 1
   14403    13902    13953 1
   14404    13903    13904 1
   14405    13903    13954 1
   14406    13903    13955 1
   14407    13904    13905 1
   14408    13904    13913 1
   14409    13904    13956 1
   14410    13905    13906 1
   14411    13905    13957 1
   14412    13905    13958 1
   14413    13906    13907 1
   14414    13906    13959 1
   14415    13906    13960 1
   14416    13907    13908 1
   14417    13907    13961 1
   14418    13907    13962 1
   14419    13908    13909 1
   14420    13908    13963 1
   14421    13908    13964 1
   14422    13909    13910 1
   14423    13909    13965 1
   14424    13909    13966 1
   14425    13910    13911 1
   14426    13910    13967 1
   14427    13910    13968 1
   14428    13911    13912 1
   14429    13911    13969 1
   14430    13911    13970 1
   14431    13912    13971 1
   14432    13912    13972 1
   14433    13912    13973 1
   14434    13913    13914 1
   14435    13913    13974 1
   14436    13913    13975 1
   14437    13914    13915 1
   14438    13915    13916 1
   14439    13915    13976 1
   14440    13915    13977 1
   14441    13916    13917 1
   14442    13916    13925 1
   14443    13916    13978 1
   14444    13917    13918 1
   14445    13917    13979 1
   14446    13917    13980 1
   14447    13918    13919 1
   14448    13918    13981 1
   14449    13918    13982 1
   14450    13919    13920 1
   14451    13919    13983 1
   14452    13919    13984 1
   14453    13920    13921 1
   14454    13920    13985 1
   14455    13920    13986 1
   14456    13921    13922 1
   14457    13921    13987 1
   14458    13921    13988 1
   14459    13922    13923 1
   14460    13922    13989 1
   14461    13922    13990 1
   14462    13923    13924 1
   14463    13923    13991 1
   14464    13923    13992 1
   14465    13924    13993 1
   14466    13924    13994 1
   14467    13924    13995 1
   14468    13925    13926 1
   14469    13925    13996 1
   14470    13925    13997 1
   14471    13926    13927 1
   14472    13926    13998 1
   14473    13926    13999 1
   14474    13927    13928 1
   14475    13927    14000 1
   14476    13927    14001 1
   14477    13928    13929 1
   14478    13928    14002 1
   14479    13928    14003 1
   14480    13929    13930 1
   14481    13929    14004 1
   14482    13929    14005 1
   14483    13930    13931 1
   14484    13930    14006 1
   14485    13930    14007 1
   14486    13931    13932 1
   14487    13931    14008 1
   14488    13931    14009 1
   14489    13932    13933 1
   14490    13932    14010 1
   14491    13932    14011 1
   14492    13933    13934 1
   14493    13933    14012 1
   14494    13933    14013 1
   14495    13934    14014 1
   14496    13934    14015 1
   14497    13934    14016 1
   14498    14017    14018 1
   14499    14017    14024 1
   14500    14017    14060 1
   14501    14018    14019 1
   14502    14018    14022 1
   14503    14019    14020 1
   14504    14019    14023 1
   14505    14020    14021 1
   14506    14021    14022 1
   14507    14021    14032 1
   14508    14022    14028 1
   14509    14023    14024 1
   14510    14023    14027 1
   14511    14024    14025 1
   14512    14025    14026 1
   14513    14025    14029 1
   14514    14026    14027 1
   14515    14030    14031 1
   14516    14030    14038 1
   14517    14031    14032 1
   14518    14031    14039 1
   14519    14032    14033 1
   14520    14033    14034 1
   14521    14033    14037 1
   14522    14034    14035 1
   14523    14035    14036 1
   14524    14036    14037 1
   14525    14037    14038 1
   14526    14038    14172 1
   14527    14040    14041 1
   14528    14040    14081 1
   14529    14040    14082 1
   14530    14040    14083 1
   14531    14041    14042 1
   14532    14041    14084 1
   14533    14041    14085 1
   14534    14042    14043 1
   14535    14042    14086 1
   14536    14042    14087 1
   14537    14043    14044 1
   14538    14043    14088 1
   14539    14043    14089 1
   14540    14044    14045 1
   14541    14044    14090 1
   14542    14044    14091 1
   14543    14045    14046 1
   14544    14045    14092 1
   14545    14045    14093 1
   14546    14046    14047 1
   14547    14046    14094 1
   14548    14046    14095 1
   14549    14047    14048 1
   14550    14047    14096 1
   14551    14047    14097 1
   14552    14048    14049 1
   14553    14048    14098 1
   14554    14048    14099 1
   14555    14049    14050 1
   14556    14049    14100 1
   14557    14049    14101 1
   14558    14050    14051 1
   14559    14050    14059 1
   14560    14050    14102 1
   14561    14051    14052 1
   14562    14051    14103 1
   14563    14051    14104 1
   14564    14052    14053 1
   14565    14052    14105 1
   14566    14052    14106 1
   14567    14053    14054 1
   14568    14053    14107 1
   14569    14053    14108 1
   14570    14054    14055 1
   14571    14054    14109 1
   14572    14054    14110 1
   14573    14055    14056 1
   14574    14055    14111 1
   14575    14055    14112 1
   14576    14056    14057 1
   14577    14056    14113 1
   14578    14056    14114 1
   14579    14057    14058 1
   14580    14057    14115 1
   14581    14057    14116 1
   14582    14058    14117 1
   14583    14058    14118 1
   14584    14058    14119 1
   14585    14059    14060 1
   14586    14059    14120 1
   14587    14059    14121 1
   14588    14060    14061 1
   14589    14061    14062 1
   14590    14061    14122 1
   14591    14061    14123 1
   14592    14062    14063 1
   14593    14062    14071 1
   14594    14062    14124 1
   14595    14063    14064 1
   14596    14063    14125 1
   14597    14063    14126 1
   14598    14064    14065 1
   14599    14064    14127 1
   14600    14064    14128 1
   14601    14065    14066 1
   14602    14065    14129 1
   14603    14065    14130 1
   14604    14066    14067 1
   14605    14066    14131 1
   14606    14066    14132 1
   14607    14067    14068 1
   14608    14067    14133 1
   14609    14067    14134 1
   14610    14068    14069 1
   14611    14068    14135 1
   14612    14068    14136 1
   14613    14069    14070 1
   14614    14069    14137 1
   14615    14069    14138 1
   14616    14070    14139 1
   14617    14070    14140 1
   14618    14070    14141 1
   14619    14071    14072 1
   14620    14071    14142 1
   14621    14071    14143 1
   14622    14072    14073 1
   14623    14072    14144 1
   14624    14072    14145 1
   14625    14073    14074 1
   14626    14073    14146 1
   14627    14073    14147 1
   14628    14074    14075 1
   14629    14074    14148 1
   14630    14074    14149 1
   14631    14075    14076 1
   14632    14075    14150 1
   14633    14075    14151 1
   14634    14076    14077 1
   14635    14076    14152 1
   14636    14076    14153 1
   14637    14077    14078 1
   14638    14077    14154 1
   14639    14077    14155 1
   14640    14078    14079 1
   14641    14078    14156 1
   14642    14078    14157 1
   14643    14079    14080 1
   14644    14079    14158 1
   14645    14079    14159 1
   14646    14080    14160 1
   14647    14080    14161 1
   14648    14080    14162 1
   14649    14163    14164 1
   14650    14163    14170 1
   14651    14163    14206 1
   14652    14164    14165 1
   14653    14164    14168 1
   14654    14165    14166 1
   14655    14165    14169 1
   14656    14166    14167 1
   14657    14167    14168 1
   14658    14167    14178 1
   14659    14168    14174 1
   14660    14169    14170 1
   14661    14169    14173 1
   14662    14170    14171 1
   14663    14171    14172 1
   14664    14171    14175 1
   14665    14172    14173 1
   14666    14176    14177 1
   14667    14176    14184 1
   14668    14177    14178 1
   14669    14177    14185 1
   14670    14178    14179 1
   14671    14179    14180 1
   14672    14179    14183 1
   14673    14180    14181 1
   14674    14181    14182 1
   14675    14182    14183 1
   14676    14183    14184 1
   14677    14184    14318 1
   14678    14186    14187 1
   14679    14186    14227 1
   14680    14186    14228 1
   14681    14186    14229 1
   14682    14187    14188 1
   14683    14187    14230 1
   14684    14187    14231 1
   14685    14188    14189 1
   14686    14188    14232 1
   14687    14188    14233 1
   14688    14189    14190 1
   14689    14189    14234 1
   14690    14189    14235 1
   14691    14190    14191 1
   14692    14190    14236 1
   14693    14190    14237 1
   14694    14191    14192 1
   14695    14191    14238 1
   14696    14191    14239 1
   14697    14192    14193 1
   14698    14192    14240 1
   14699    14192    14241 1
   14700    14193    14194 1
   14701    14193    14242 1
   14702    14193    14243 1
   14703    14194    14195 1
   14704    14194    14244 1
   14705    14194    14245 1
   14706    14195    14196 1
   14707    14195    14246 1
   14708    14195    14247 1
   14709    14196    14197 1
   14710    14196    14205 1
   14711    14196    14248 1
   14712    14197    14198 1
   14713    14197    14249 1
   14714    14197    14250 1
   14715    14198    14199 1
   14716    14198    14251 1
   14717    14198    14252 1
   14718    14199    14200 1
   14719    14199    14253 1
   14720    14199    14254 1
   14721    14200    14201 1
   14722    14200    14255 1
   14723    14200    14256 1
   14724    14201    14202 1
   14725    14201    14257 1
   14726    14201    14258 1
   14727    14202    14203 1
   14728    14202    14259 1
   14729    14202    14260 1
   14730    14203    14204 1
   14731    14203    14261 1
   14732    14203    14262 1
   14733    14204    14263 1
   14734    14204    14264 1
   14735    14204    14265 1
   14736    14205    14206 1
   14737    14205    14266 1
   14738    14205    14267 1
   14739    14206    14207 1
   14740    14207    14208 1
   14741    14207    14268 1
   14742    14207    14269 1
   14743    14208    14209 1
   14744    14208    14217 1
   14745    14208    14270 1
   14746    14209    14210 1
   14747    14209    14271 1
   14748    14209    14272 1
   14749    14210    14211 1
   14750    14210    14273 1
   14751    14210    14274 1
   14752    14211    14212 1
   14753    14211    14275 1
   14754    14211    14276 1
   14755    14212    14213 1
   14756    14212    14277 1
   14757    14212    14278 1
   14758    14213    14214 1
   14759    14213    14279 1
   14760    14213    14280 1
   14761    14214    14215 1
   14762    14214    14281 1
   14763    14214    14282 1
   14764    14215    14216 1
   14765    14215    14283 1
   14766    14215    14284 1
   14767    14216    14285 1
   14768    14216    14286 1
   14769    14216    14287 1
   14770    14217    14218 1
   14771    14217    14288 1
   14772    14217    14289 1
   14773    14218    14219 1
   14774    14218    14290 1
   14775    14218    14291 1
   14776    14219    14220 1
   14777    14219    14292 1
   14778    14219    14293 1
   14779    14220    14221 1
   14780    14220    14294 1
   14781    14220    14295 1
   14782    14221    14222 1
   14783    14221    14296 1
   14784    14221    14297 1
   14785    14222    14223 1
   14786    14222    14298 1
   14787    14222    14299 1
   14788    14223    14224 1
   14789    14223    14300 1
   14790    14223    14301 1
   14791    14224    14225 1
   14792    14224    14302 1
   14793    14224    14303 1
   14794    14225    14226 1
   14795    14225    14304 1
   14796    14225    14305 1
   14797    14226    14306 1
   14798    14226    14307 1
   14799    14226    14308 1
   14800    14309    14310 1
   14801    14309    14316 1
   14802    14309    14352 1
   14803    14310    14311 1
   14804    14310    14314 1
   14805    14311    14312 1
   14806    14311    14315 1
   14807    14312    14313 1
   14808    14313    14314 1
   14809    14313    14324 1
   14810    14314    14320 1
   14811    14315    14316 1
   14812    14315    14319 1
   14813    14316    14317 1
   14814    14317    14318 1
   14815    14317    14321 1
   14816    14318    14319 1
   14817    14322    14323 1
   14818    14322    14330 1
   14819    14323    14324 1
   14820    14323    14331 1
   14821    14324    14325 1
   14822    14325    14326 1
   14823    14325    14329 1
   14824    14326    14327 1
   14825    14327    14328 1
   14826    14328    14329 1
   14827    14329    14330 1
   14828    14330    14464 1
   14829    14332    14333 1
   14830    14332    14373 1
   14831    14332    14374 1
   14832    14332    14375 1
   14833    14333    14334 1
   14834    14333    14376 1
   14835    14333    14377 1
   14836    14334    14335 1
   14837    14334    14378 1
   14838    14334    14379 1
   14839    14335    14336 1
   14840    14335    14380 1
   14841    14335    14381 1
   14842    14336    14337 1
   14843    14336    14382 1
   14844    14336    14383 1
   14845    14337    14338 1
   14846    14337    14384 1
   14847    14337    14385 1
   14848    14338    14339 1
   14849    14338    14386 1
   14850    14338    14387 1
   14851    14339    14340 1
   14852    14339    14388 1
   14853    14339    14389 1
   14854    14340    14341 1
   14855    14340    14390 1
   14856    14340    14391 1
   14857    14341    14342 1
   14858    14341    14392 1
   14859    14341    14393 1
   14860    14342    14343 1
   14861    14342    14351 1
   14862    14342    14394 1
   14863    14343    14344 1
   14864    14343    14395 1
   14865    14343    14396 1
   14866    14344    14345 1
   14867    14344    14397 1
   14868    14344    14398 1
   14869    14345    14346 1
   14870    14345    14399 1
   14871    14345    14400 1
   14872    14346    14347 1
   14873    14346    14401 1
   14874    14346    14402 1
   14875    14347    14348 1
   14876    14347    14403 1
   14877    14347    14404 1
   14878    14348    14349 1
   14879    14348    14405 1
   14880    14348    14406 1
   14881    14349    14350 1
   14882    14349    14407 1
   14883    14349    14408 1
   14884    14350    14409 1
   14885    14350    14410 1
   14886    14350    14411 1
   14887    14351    14352 1
   14888    14351    14412 1
   14889    14351    14413 1
   14890    14352    14353 1
   14891    14353    14354 1
   14892    14353    14414 1
   14893    14353    14415 1
   14894    14354    14355 1
   14895    14354    14363 1
   14896    14354    14416 1
   14897    14355    14356 1
   14898    14355    14417 1
   14899    14355    14418 1
   14900    14356    14357 1
   14901    14356    14419 1
   14902    14356    14420 1
   14903    14357    14358 1
   14904    14357    14421 1
   14905    14357    14422 1
   14906    14358    14359 1
   14907    14358    14423 1
   14908    14358    14424 1
   14909    14359    14360 1
   14910    14359    14425 1
   14911    14359    14426 1
   14912    14360    14361 1
   14913    14360    14427 1
   14914    14360    14428 1
   14915    14361    14362 1
   14916    14361    14429 1
   14917    14361    14430 1
   14918    14362    14431 1
   14919    14362    14432 1
   14920    14362    14433 1
   14921    14363    14364 1
   14922    14363    14434 1
   14923    14363    14435 1
   14924    14364    14365 1
   14925    14364    14436 1
   14926    14364    14437 1
   14927    14365    14366 1
   14928    14365    14438 1
   14929    14365    14439 1
   14930    14366    14367 1
   14931    14366    14440 1
   14932    14366    14441 1
   14933    14367    14368 1
   14934    14367    14442 1
   14935    14367    14443 1
   14936    14368    14369 1
   14937    14368    14444 1
   14938    14368    14445 1
   14939    14369    14370 1
   14940    14369    14446 1
   14941    14369    14447 1
   14942    14370    14371 1
   14943    14370    14448 1
   14944    14370    14449 1
   14945    14371    14372 1
   14946    14371    14450 1
   14947    14371    14451 1
   14948    14372    14452 1
   14949    14372    14453 1
   14950    14372    14454 1
   14951    14455    14456 1
   14952    14455    14462 1
   14953    14455    14498 1
   14954    14456    14457 1
   14955    14456    14460 1
   14956    14457    14458 1
   14957    14457    14461 1
   14958    14458    14459 1
   14959    14459    14460 1
   14960    14459    14470 1
   14961    14460    14466 1
   14962    14461    14462 1
   14963    14461    14465 1
   14964    14462    14463 1
   14965    14463    14464 1
   14966    14463    14467 1
   14967    14464    14465 1
   14968    14468    14469 1
   14969    14468    14476 1
   14970    14469    14470 1
   14971    14469    14477 1
   14972    14470    14471 1
   14973    14471    14472 1
   14974    14471    14475 1
   14975    14472    14473 1
   14976    14473    14474 1
   14977    14474    14475 1
   14978    14475    14476 1
   14979    14476    14610 1
   14980    14478    14479 1
   14981    14478    14519 1
   14982    14478    14520 1
   14983    14478    14521 1
   14984    14479    14480 1
   14985    14479    14522 1
   14986    14479    14523 1
   14987    14480    14481 1
   14988    14480    14524 1
   14989    14480    14525 1
   14990    14481    14482 1
   14991    14481    14526 1
   14992    14481    14527 1
   14993    14482    14483 1
   14994    14482    14528 1
   14995    14482    14529 1
   14996    14483    14484 1
   14997    14483    14530 1
   14998    14483    14531 1
   14999    14484    14485 1
   15000    14484    14532 1
   15001    14484    14533 1
   15002    14485    14486 1
   15003    14485    14534 1
   15004    14485    14535 1
   15005    14486    14487 1
   15006    14486    14536 1
   15007    14486    14537 1
   15008    14487    14488 1
   15009    14487    14538 1
   15010    14487    14539 1
   15011    14488    14489 1
   15012    14488    14497 1
   15013    14488    14540 1
   15014    14489    14490 1
   15015    14489    14541 1
   15016    14489    14542 1
   15017    14490    14491 1
   15018    14490    14543 1
   15019    14490    14544 1
   15020    14491    14492 1
   15021    14491    14545 1
   15022    14491    14546 1
   15023    14492    14493 1
   15024    14492    14547 1
   15025    14492    14548 1
   15026    14493    14494 1
   15027    14493    14549 1
   15028    14493    14550 1
   15029    14494    14495 1
   15030    14494    14551 1
   15031    14494    14552 1
   15032    14495    14496 1
   15033    14495    14553 1
   15034    14495    14554 1
   15035    14496    14555 1
   15036    14496    14556 1
   15037    14496    14557 1
   15038    14497    14498 1
   15039    14497    14558 1
   15040    14497    14559 1
   15041    14498    14499 1
   15042    14499    14500 1
   15043    14499    14560 1
   15044    14499    14561 1
   15045    14500    14501 1
   15046    14500    14509 1
   15047    14500    14562 1
   15048    14501    14502 1
   15049    14501    14563 1
   15050    14501    14564 1
   15051    14502    14503 1
   15052    14502    14565 1
   15053    14502    14566 1
   15054    14503    14504 1
   15055    14503    14567 1
   15056    14503    14568 1
   15057    14504    14505 1
   15058    14504    14569 1
   15059    14504    14570 1
   15060    14505    14506 1
   15061    14505    14571 1
   15062    14505    14572 1
   15063    14506    14507 1
   15064    14506    14573 1
   15065    14506    14574 1
   15066    14507    14508 1
   15067    14507    14575 1
   15068    14507    14576 1
   15069    14508    14577 1
   15070    14508    14578 1
   15071    14508    14579 1
   15072    14509    14510 1
   15073    14509    14580 1
   15074    14509    14581 1
   15075    14510    14511 1
   15076    14510    14582 1
   15077    14510    14583 1
   15078    14511    14512 1
   15079    14511    14584 1
   15080    14511    14585 1
   15081    14512    14513 1
   15082    14512    14586 1
   15083    14512    14587 1
   15084    14513    14514 1
   15085    14513    14588 1
   15086    14513    14589 1
   15087    14514    14515 1
   15088    14514    14590 1
   15089    14514    14591 1
   15090    14515    14516 1
   15091    14515    14592 1
   15092    14515    14593 1
   15093    14516    14517 1
   15094    14516    14594 1
   15095    14516    14595 1
   15096    14517    14518 1
   15097    14517    14596 1
   15098    14517    14597 1
   15099    14518    14598 1
   15100    14518    14599 1
   15101    14518    14600 1
   15102    14601    14602 1
   15103    14601    14608 1
   15104    14601    14644 1
   15105    14602    14603 1
   15106    14602    14606 1
   15107    14603    14604 1
   15108    14603    14607 1
   15109    14604    14605 1
   15110    14605    14606 1
   15111    14605    14616 1
   15112    14606    14612 1
   15113    14607    14608 1
   15114    14607    14611 1
   15115    14608    14609 1
   15116    14609    14610 1
   15117    14609    14613 1
   15118    14610    14611 1
   15119    14614    14615 1
   15120    14614    14622 1
   15121    14615    14616 1
   15122    14615    14623 1
   15123    14616    14617 1
   15124    14617    14618 1
   15125    14617    14621 1
   15126    14618    14619 1
   15127    14619    14620 1
   15128    14620    14621 1
   15129    14621    14622 1
   15130    14622    14756 1
   15131    14624    14625 1
   15132    14624    14665 1
   15133    14624    14666 1
   15134    14624    14667 1
   15135    14625    14626 1
   15136    14625    14668 1
   15137    14625    14669 1
   15138    14626    14627 1
   15139    14626    14670 1
   15140    14626    14671 1
   15141    14627    14628 1
   15142    14627    14672 1
   15143    14627    14673 1
   15144    14628    14629 1
   15145    14628    14674 1
   15146    14628    14675 1
   15147    14629    14630 1
   15148    14629    14676 1
   15149    14629    14677 1
   15150    14630    14631 1
   15151    14630    14678 1
   15152    14630    14679 1
   15153    14631    14632 1
   15154    14631    14680 1
   15155    14631    14681 1
   15156    14632    14633 1
   15157    14632    14682 1
   15158    14632    14683 1
   15159    14633    14634 1
   15160    14633    14684 1
   15161    14633    14685 1
   15162    14634    14635 1
   15163    14634    14643 1
   15164    14634    14686 1
   15165    14635    14636 1
   15166    14635    14687 1
   15167    14635    14688 1
   15168    14636    14637 1
   15169    14636    14689 1
   15170    14636    14690 1
   15171    14637    14638 1
   15172    14637    14691 1
   15173    14637    14692 1
   15174    14638    14639 1
   15175    14638    14693 1
   15176    14638    14694 1
   15177    14639    14640 1
   15178    14639    14695 1
   15179    14639    14696 1
   15180    14640    14641 1
   15181    14640    14697 1
   15182    14640    14698 1
   15183    14641    14642 1
   15184    14641    14699 1
   15185    14641    14700 1
   15186    14642    14701 1
   15187    14642    14702 1
   15188    14642    14703 1
   15189    14643    14644 1
   15190    14643    14704 1
   15191    14643    14705 1
   15192    14644    14645 1
   15193    14645    14646 1
   15194    14645    14706 1
   15195    14645    14707 1
   15196    14646    14647 1
   15197    14646    14655 1
   15198    14646    14708 1
   15199    14647    14648 1
   15200    14647    14709 1
   15201    14647    14710 1
   15202    14648    14649 1
   15203    14648    14711 1
   15204    14648    14712 1
   15205    14649    14650 1
   15206    14649    14713 1
   15207    14649    14714 1
   15208    14650    14651 1
   15209    14650    14715 1
   15210    14650    14716 1
   15211    14651    14652 1
   15212    14651    14717 1
   15213    14651    14718 1
   15214    14652    14653 1
   15215    14652    14719 1
   15216    14652    14720 1
   15217    14653    14654 1
   15218    14653    14721 1
   15219    14653    14722 1
   15220    14654    14723 1
   15221    14654    14724 1
   15222    14654    14725 1
   15223    14655    14656 1
   15224    14655    14726 1
   15225    14655    14727 1
   15226    14656    14657 1
   15227    14656    14728 1
   15228    14656    14729 1
   15229    14657    14658 1
   15230    14657    14730 1
   15231    14657    14731 1
   15232    14658    14659 1
   15233    14658    14732 1
   15234    14658    14733 1
   15235    14659    14660 1
   15236    14659    14734 1
   15237    14659    14735 1
   15238    14660    14661 1
   15239    14660    14736 1
   15240    14660    14737 1
   15241    14661    14662 1
   15242    14661    14738 1
   15243    14661    14739 1
   15244    14662    14663 1
   15245    14662    14740 1
   15246    14662    14741 1
   15247    14663    14664 1
   15248    14663    14742 1
   15249    14663    14743 1
   15250    14664    14744 1
   15251    14664    14745 1
   15252    14664    14746 1
   15253    14747    14748 1
   15254    14747    14754 1
   15255    14747    14790 1
   15256    14748    14749 1
   15257    14748    14752 1
   15258    14749    14750 1
   15259    14749    14753 1
   15260    14750    14751 1
   15261    14751    14752 1
   15262    14751    14762 1
   15263    14752    14758 1
   15264    14753    14754 1
   15265    14753    14757 1
   15266    14754    14755 1
   15267    14755    14756 1
   15268    14755    14759 1
   15269    14756    14757 1
   15270    14760    14761 1
   15271    14760    14768 1
   15272    14761    14762 1
   15273    14761    14769 1
   15274    14762    14763 1
   15275    14763    14764 1
   15276    14763    14767 1
   15277    14764    14765 1
   15278    14765    14766 1
   15279    14766    14767 1
   15280    14767    14768 1
   15281    14768    14902 1
   15282    14770    14771 1
   15283    14770    14811 1
   15284    14770    14812 1
   15285    14770    14813 1
   15286    14771    14772 1
   15287    14771    14814 1
   15288    14771    14815 1
   15289    14772    14773 1
   15290    14772    14816 1
   15291    14772    14817 1
   15292    14773    14774 1
   15293    14773    14818 1
   15294    14773    14819 1
   15295    14774    14775 1
   15296    14774    14820 1
   15297    14774    14821 1
   15298    14775    14776 1
   15299    14775    14822 1
   15300    14775    14823 1
   15301    14776    14777 1
   15302    14776    14824 1
   15303    14776    14825 1
   15304    14777    14778 1
   15305    14777    14826 1
   15306    14777    14827 1
   15307    14778    14779 1
   15308    14778    14828 1
   15309    14778    14829 1
   15310    14779    14780 1
   15311    14779    14830 1
   15312    14779    14831 1
   15313    14780    14781 1
   15314    14780    14789 1
   15315    14780    14832 1
   15316    14781    14782 1
   15317    14781    14833 1
   15318    14781    14834 1
   15319    14782    14783 1
   15320    14782    14835 1
   15321    14782    14836 1
   15322    14783    14784 1
   15323    14783    14837 1
   15324    14783    14838 1
   15325    14784    14785 1
   15326    14784    14839 1
   15327    14784    14840 1
   15328    14785    14786 1
   15329    14785    14841 1
   15330    14785    14842 1
   15331    14786    14787 1
   15332    14786    14843 1
   15333    14786    14844 1
   15334    14787    14788 1
   15335    14787    14845 1
   15336    14787    14846 1
   15337    14788    14847 1
   15338    14788    14848 1
   15339    14788    14849 1
   15340    14789    14790 1
   15341    14789    14850 1
   15342    14789    14851 1
   15343    14790    14791 1
   15344    14791    14792 1
   15345    14791    14852 1
   15346    14791    14853 1
   15347    14792    14793 1
   15348    14792    14801 1
   15349    14792    14854 1
   15350    14793    14794 1
   15351    14793    14855 1
   15352    14793    14856 1
   15353    14794    14795 1
   15354    14794    14857 1
   15355    14794    14858 1
   15356    14795    14796 1
   15357    14795    14859 1
   15358    14795    14860 1
   15359    14796    14797 1
   15360    14796    14861 1
   15361    14796    14862 1
   15362    14797    14798 1
   15363    14797    14863 1
   15364    14797    14864 1
   15365    14798    14799 1
   15366    14798    14865 1
   15367    14798    14866 1
   15368    14799    14800 1
   15369    14799    14867 1
   15370    14799    14868 1
   15371    14800    14869 1
   15372    14800    14870 1
   15373    14800    14871 1
   15374    14801    14802 1
   15375    14801    14872 1
   15376    14801    14873 1
   15377    14802    14803 1
   15378    14802    14874 1
   15379    14802    14875 1
   15380    14803    14804 1
   15381    14803    14876 1
   15382    14803    14877 1
   15383    14804    14805 1
   15384    14804    14878 1
   15385    14804    14879 1
   15386    14805    14806 1
   15387    14805    14880 1
   15388    14805    14881 1
   15389    14806    14807 1
   15390    14806    14882 1
   15391    14806    14883 1
   15392    14807    14808 1
   15393    14807    14884 1
   15394    14807    14885 1
   15395    14808    14809 1
   15396    14808    14886 1
   15397    14808    14887 1
   15398    14809    14810 1
   15399    14809    14888 1
   15400    14809    14889 1
   15401    14810    14890 1
   15402    14810    14891 1
   15403    14810    14892 1
   15404    14893    14894 1
   15405    14893    14900 1
   15406    14893    14936 1
   15407    14894    14895 1
   15408    14894    14898 1
   15409    14895    14896 1
   15410    14895    14899 1
   15411    14896    14897 1
   15412    14897    14898 1
   15413    14897    14908 1
   15414    14898    14904 1
   15415    14899    14900 1
   15416    14899    14903 1
   15417    14900    14901 1
   15418    14901    14902 1
   15419    14901    14905 1
   15420    14902    14903 1
   15421    14906    14907 1
   15422    14906    14914 1
   15423    14907    14908 1
   15424    14907    14915 1
   15425    14908    14909 1
   15426    14909    14910 1
   15427    14909    14913 1
   15428    14910    14911 1
   15429    14911    14912 1
   15430    14912    14913 1
   15431    14913    14914 1
   15432    14914    15048 1
   15433    14916    14917 1
   15434    14916    14957 1
   15435    14916    14958 1
   15436    14916    14959 1
   15437    14917    14918 1
   15438    14917    14960 1
   15439    14917    14961 1
   15440    14918    14919 1
   15441    14918    14962 1
   15442    14918    14963 1
   15443    14919    14920 1
   15444    14919    14964 1
   15445    14919    14965 1
   15446    14920    14921 1
   15447    14920    14966 1
   15448    14920    14967 1
   15449    14921    14922 1
   15450    14921    14968 1
   15451    14921    14969 1
   15452    14922    14923 1
   15453    14922    14970 1
   15454    14922    14971 1
   15455    14923    14924 1
   15456    14923    14972 1
   15457    14923    14973 1
   15458    14924    14925 1
   15459    14924    14974 1
   15460    14924    14975 1
   15461    14925    14926 1
   15462    14925    14976 1
   15463    14925    14977 1
   15464    14926    14927 1
   15465    14926    14935 1
   15466    14926    14978 1
   15467    14927    14928 1
   15468    14927    14979 1
   15469    14927    14980 1
   15470    14928    14929 1
   15471    14928    14981 1
   15472    14928    14982 1
   15473    14929    14930 1
   15474    14929    14983 1
   15475    14929    14984 1
   15476    14930    14931 1
   15477    14930    14985 1
   15478    14930    14986 1
   15479    14931    14932 1
   15480    14931    14987 1
   15481    14931    14988 1
   15482    14932    14933 1
   15483    14932    14989 1
   15484    14932    14990 1
   15485    14933    14934 1
   15486    14933    14991 1
   15487    14933    14992 1
   15488    14934    14993 1
   15489    14934    14994 1
   15490    14934    14995 1
   15491    14935    14936 1
   15492    14935    14996 1
   15493    14935    14997 1
   15494    14936    14937 1
   15495    14937    14938 1
   15496    14937    14998 1
   15497    14937    14999 1
   15498    14938    14939 1
   15499    14938    14947 1
   15500    14938    15000 1
   15501    14939    14940 1
   15502    14939    15001 1
   15503    14939    15002 1
   15504    14940    14941 1
   15505    14940    15003 1
   15506    14940    15004 1
   15507    14941    14942 1
   15508    14941    15005 1
   15509    14941    15006 1
   15510    14942    14943 1
   15511    14942    15007 1
   15512    14942    15008 1
   15513    14943    14944 1
   15514    14943    15009 1
   15515    14943    15010 1
   15516    14944    14945 1
   15517    14944    15011 1
   15518    14944    15012 1
   15519    14945    14946 1
   15520    14945    15013 1
   15521    14945    15014 1
   15522    14946    15015 1
   15523    14946    15016 1
   15524    14946    15017 1
   15525    14947    14948 1
   15526    14947    15018 1
   15527    14947    15019 1
   15528    14948    14949 1
   15529    14948    15020 1
   15530    14948    15021 1
   15531    14949    14950 1
   15532    14949    15022 1
   15533    14949    15023 1
   15534    14950    14951 1
   15535    14950    15024 1
   15536    14950    15025 1
   15537    14951    14952 1
   15538    14951    15026 1
   15539    14951    15027 1
   15540    14952    14953 1
   15541    14952    15028 1
   15542    14952    15029 1
   15543    14953    14954 1
   15544    14953    15030 1
   15545    14953    15031 1
   15546    14954    14955 1
   15547    14954    15032 1
   15548    14954    15033 1
   15549    14955    14956 1
   15550    14955    15034 1
   15551    14955    15035 1
   15552    14956    15036 1
   15553    14956    15037 1
   15554    14956    15038 1
   15555    15039    15040 1
   15556    15039    15046 1
   15557    15039    15082 1
   15558    15040    15041 1
   15559    15040    15044 1
   15560    15041    15042 1
   15561    15041    15045 1
   15562    15042    15043 1
   15563    15043    15044 1
   15564    15043    15054 1
   15565    15044    15050 1
   15566    15045    15046 1
   15567    15045    15049 1
   15568    15046    15047 1
   15569    15047    15048 1
   15570    15047    15051 1
   15571    15048    15049 1
   15572    15052    15053 1
   15573    15052    15060 1
   15574    15053    15054 1
   15575    15053    15061 1
   15576    15054    15055 1
   15577    15055    15056 1
   15578    15055    15059 1
   15579    15056    15057 1
   15580    15057    15058 1
   15581    15058    15059 1
   15582    15059    15060 1
   15583    15060    15194 1
   15584    15062    15063 1
   15585    15062    15103 1
   15586    15062    15104 1
   15587    15062    15105 1
   15588    15063    15064 1
   15589    15063    15106 1
   15590    15063    15107 1
   15591    15064    15065 1
   15592    15064    15108 1
   15593    15064    15109 1
   15594    15065    15066 1
   15595    15065    15110 1
   15596    15065    15111 1
   15597    15066    15067 1
   15598    15066    15112 1
   15599    15066    15113 1
   15600    15067    15068 1
   15601    15067    15114 1
   15602    15067    15115 1
   15603    15068    15069 1
   15604    15068    15116 1
   15605    15068    15117 1
   15606    15069    15070 1
   15607    15069    15118 1
   15608    15069    15119 1
   15609    15070    15071 1
   15610    15070    15120 1
   15611    15070    15121 1
   15612    15071    15072 1
   15613    15071    15122 1
   15614    15071    15123 1
   15615    15072    15073 1
   15616    15072    15081 1
   15617    15072    15124 1
   15618    15073    15074 1
   15619    15073    15125 1
   15620    15073    15126 1
   15621    15074    15075 1
   15622    15074    15127 1
   15623    15074    15128 1
   15624    15075    15076 1
   15625    15075    15129 1
   15626    15075    15130 1
   15627    15076    15077 1
   15628    15076    15131 1
   15629    15076    15132 1
   15630    15077    15078 1
   15631    15077    15133 1
   15632    15077    15134 1
   15633    15078    15079 1
   15634    15078    15135 1
   15635    15078    15136 1
   15636    15079    15080 1
   15637    15079    15137 1
   15638    15079    15138 1
   15639    15080    15139 1
   15640    15080    15140 1
   15641    15080    15141 1
   15642    15081    15082 1
   15643    15081    15142 1
   15644    15081    15143 1
   15645    15082    15083 1
   15646    15083    15084 1
   15647    15083    15144 1
   15648    15083    15145 1
   15649    15084    15085 1
   15650    15084    15093 1
   15651    15084    15146 1
   15652    15085    15086 1
   15653    15085    15147 1
   15654    15085    15148 1
   15655    15086    15087 1
   15656    15086    15149 1
   15657    15086    15150 1
   15658    15087    15088 1
   15659    15087    15151 1
   15660    15087    15152 1
   15661    15088    15089 1
   15662    15088    15153 1
   15663    15088    15154 1
   15664    15089    15090 1
   15665    15089    15155 1
   15666    15089    15156 1
   15667    15090    15091 1
   15668    15090    15157 1
   15669    15090    15158 1
   15670    15091    15092 1
   15671    15091    15159 1
   15672    15091    15160 1
   15673    15092    15161 1
   15674    15092    15162 1
   15675    15092    15163 1
   15676    15093    15094 1
   15677    15093    15164 1
   15678    15093    15165 1
   15679    15094    15095 1
   15680    15094    15166 1
   15681    15094    15167 1
   15682    15095    15096 1
   15683    15095    15168 1
   15684    15095    15169 1
   15685    15096    15097 1
   15686    15096    15170 1
   15687    15096    15171 1
   15688    15097    15098 1
   15689    15097    15172 1
   15690    15097    15173 1
   15691    15098    15099 1
   15692    15098    15174 1
   15693    15098    15175 1
   15694    15099    15100 1
   15695    15099    15176 1
   15696    15099    15177 1
   15697    15100    15101 1
   15698    15100    15178 1
   15699    15100    15179 1
   15700    15101    15102 1
   15701    15101    15180 1
   15702    15101    15181 1
   15703    15102    15182 1
   15704    15102    15183 1
   15705    15102    15184 1
   15706    15185    15186 1
   15707    15185    15192 1
   15708    15185    15228 1
   15709    15186    15187 1
   15710    15186    15190 1
   15711    15187    15188 1
   15712    15187    15191 1
   15713    15188    15189 1
   15714    15189    15190 1
   15715    15189    15200 1
   15716    15190    15196 1
   15717    15191    15192 1
   15718    15191    15195 1
   15719    15192    15193 1
   15720    15193    15194 1
   15721    15193    15197 1
   15722    15194    15195 1
   15723    15198    15199 1
   15724    15198    15206 1
   15725    15199    15200 1
   15726    15199    15207 1
   15727    15200    15201 1
   15728    15201    15202 1
   15729    15201    15205 1
   15730    15202    15203 1
   15731    15203    15204 1
   15732    15204    15205 1
   15733    15205    15206 1
   15734    15206    15340 1
   15735    15208    15209 1
   15736    15208    15249 1
   15737    15208    15250 1
   15738    15208    15251 1
   15739    15209    15210 1
   15740    15209    15252 1
   15741    15209    15253 1
   15742    15210    15211 1
   15743    15210    15254 1
   15744    15210    15255 1
   15745    15211    15212 1
   15746    15211    15256 1
   15747    15211    15257 1
   15748    15212    15213 1
   15749    15212    15258 1
   15750    15212    15259 1
   15751    15213    15214 1
   15752    15213    15260 1
   15753    15213    15261 1
   15754    15214    15215 1
   15755    15214    15262 1
   15756    15214    15263 1
   15757    15215    15216 1
   15758    15215    15264 1
   15759    15215    15265 1
   15760    15216    15217 1
   15761    15216    15266 1
   15762    15216    15267 1
   15763    15217    15218 1
   15764    15217    15268 1
   15765    15217    15269 1
   15766    15218    15219 1
   15767    15218    15227 1
   15768    15218    15270 1
   15769    15219    15220 1
   15770    15219    15271 1
   15771    15219    15272 1
   15772    15220    15221 1
   15773    15220    15273 1
   15774    15220    15274 1
   15775    15221    15222 1
   15776    15221    15275 1
   15777    15221    15276 1
   15778    15222    15223 1
   15779    15222    15277 1
   15780    15222    15278 1
   15781    15223    15224 1
   15782    15223    15279 1
   15783    15223    15280 1
   15784    15224    15225 1
   15785    15224    15281 1
   15786    15224    15282 1
   15787    15225    15226 1
   15788    15225    15283 1
   15789    15225    15284 1
   15790    15226    15285 1
   15791    15226    15286 1
   15792    15226    15287 1
   15793    15227    15228 1
   15794    15227    15288 1
   15795    15227    15289 1
   15796    15228    15229 1
   15797    15229    15230 1
   15798    15229    15290 1
   15799    15229    15291 1
   15800    15230    15231 1
   15801    15230    15239 1
   15802    15230    15292 1
   15803    15231    15232 1
   15804    15231    15293 1
   15805    15231    15294 1
   15806    15232    15233 1
   15807    15232    15295 1
   15808    15232    15296 1
   15809    15233    15234 1
   15810    15233    15297 1
   15811    15233    15298 1
   15812    15234    15235 1
   15813    15234    15299 1
   15814    15234    15300 1
   15815    15235    15236 1
   15816    15235    15301 1
   15817    15235    15302 1
   15818    15236    15237 1
   15819    15236    15303 1
   15820    15236    15304 1
   15821    15237    15238 1
   15822    15237    15305 1
   15823    15237    15306 1
   15824    15238    15307 1
   15825    15238    15308 1
   15826    15238    15309 1
   15827    15239    15240 1
   15828    15239    15310 1
   15829    15239    15311 1
   15830    15240    15241 1
   15831    15240    15312 1
   15832    15240    15313 1
   15833    15241    15242 1
   15834    15241    15314 1
   15835    15241    15315 1
   15836    15242    15243 1
   15837    15242    15316 1
   15838    15242    15317 1
   15839    15243    15244 1
   15840    15243    15318 1
   15841    15243    15319 1
   15842    15244    15245 1
   15843    15244    15320 1
   15844    15244    15321 1
   15845    15245    15246 1
   15846    15245    15322 1
   15847    15245    15323 1
   15848    15246    15247 1
   15849    15246    15324 1
   15850    15246    15325 1
   15851    15247    15248 1
   15852    15247    15326 1
   15853    15247    15327 1
   15854    15248    15328 1
   15855    15248    15329 1
   15856    15248    15330 1
   15857    15331    15332 1
   15858    15331    15338 1
   15859    15331    15374 1
   15860    15332    15333 1
   15861    15332    15336 1
   15862    15333    15334 1
   15863    15333    15337 1
   15864    15334    15335 1
   15865    15335    15336 1
   15866    15335    15346 1
   15867    15336    15342 1
   15868    15337    15338 1
   15869    15337    15341 1
   15870    15338    15339 1
   15871    15339    15340 1
   15872    15339    15343 1
   15873    15340    15341 1
   15874    15344    15345 1
   15875    15344    15352 1
   15876    15345    15346 1
   15877    15345    15353 1
   15878    15346    15347 1
   15879    15347    15348 1
   15880    15347    15351 1
   15881    15348    15349 1
   15882    15349    15350 1
   15883    15350    15351 1
   15884    15351    15352 1
   15885    15352    15486 1
   15886    15354    15355 1
   15887    15354    15395 1
   15888    15354    15396 1
   15889    15354    15397 1
   15890    15355    15356 1
   15891    15355    15398 1
   15892    15355    15399 1
   15893    15356    15357 1
   15894    15356    15400 1
   15895    15356    15401 1
   15896    15357    15358 1
   15897    15357    15402 1
   15898    15357    15403 1
   15899    15358    15359 1
   15900    15358    15404 1
   15901    15358    15405 1
   15902    15359    15360 1
   15903    15359    15406 1
   15904    15359    15407 1
   15905    15360    15361 1
   15906    15360    15408 1
   15907    15360    15409 1
   15908    15361    15362 1
   15909    15361    15410 1
   15910    15361    15411 1
   15911    15362    15363 1
   15912    15362    15412 1
   15913    15362    15413 1
   15914    15363    15364 1
   15915    15363    15414 1
   15916    15363    15415 1
   15917    15364    15365 1
   15918    15364    15373 1
   15919    15364    15416 1
   15920    15365    15366 1
   15921    15365    15417 1
   15922    15365    15418 1
   15923    15366    15367 1
   15924    15366    15419 1
   15925    15366    15420 1
   15926    15367    15368 1
   15927    15367    15421 1
   15928    15367    15422 1
   15929    15368    15369 1
   15930    15368    15423 1
   15931    15368    15424 1
   15932    15369    15370 1
   15933    15369    15425 1
   15934    15369    15426 1
   15935    15370    15371 1
   15936    15370    15427 1
   15937    15370    15428 1
   15938    15371    15372 1
   15939    15371    15429 1
   15940    15371    15430 1
   15941    15372    15431 1
   15942    15372    15432 1
   15943    15372    15433 1
   15944    15373    15374 1
   15945    15373    15434 1
   15946    15373    15435 1
   15947    15374    15375 1
   15948    15375    15376 1
   15949    15375    15436 1
   15950    15375    15437 1
   15951    15376    15377 1
   15952    15376    15385 1
   15953    15376    15438 1
   15954    15377    15378 1
   15955    15377    15439 1
   15956    15377    15440 1
   15957    15378    15379 1
   15958    15378    15441 1
   15959    15378    15442 1
   15960    15379    15380 1
   15961    15379    15443 1
   15962    15379    15444 1
   15963    15380    15381 1
   15964    15380    15445 1
   15965    15380    15446 1
   15966    15381    15382 1
   15967    15381    15447 1
   15968    15381    15448 1
   15969    15382    15383 1
   15970    15382    15449 1
   15971    15382    15450 1
   15972    15383    15384 1
   15973    15383    15451 1
   15974    15383    15452 1
   15975    15384    15453 1
   15976    15384    15454 1
   15977    15384    15455 1
   15978    15385    15386 1
   15979    15385    15456 1
   15980    15385    15457 1
   15981    15386    15387 1
   15982    15386    15458 1
   15983    15386    15459 1
   15984    15387    15388 1
   15985    15387    15460 1
   15986    15387    15461 1
   15987    15388    15389 1
   15988    15388    15462 1
   15989    15388    15463 1
   15990    15389    15390 1
   15991    15389    15464 1
   15992    15389    15465 1
   15993    15390    15391 1
   15994    15390    15466 1
   15995    15390    15467 1
   15996    15391    15392 1
   15997    15391    15468 1
   15998    15391    15469 1
   15999    15392    15393 1
   16000    15392    15470 1
   16001    15392    15471 1
   16002    15393    15394 1
   16003    15393    15472 1
   16004    15393    15473 1
   16005    15394    15474 1
   16006    15394    15475 1
   16007    15394    15476 1
   16008    15477    15478 1
   16009    15477    15484 1
   16010    15477    15520 1
   16011    15478    15479 1
   16012    15478    15482 1
   16013    15479    15480 1
   16014    15479    15483 1
   16015    15480    15481 1
   16016    15481    15482 1
   16017    15481    15492 1
   16018    15482    15488 1
   16019    15483    15484 1
   16020    15483    15487 1
   16021    15484    15485 1
   16022    15485    15486 1
   16023    15485    15489 1
   16024    15486    15487 1
   16025    15490    15491 1
   16026    15490    15498 1
   16027    15491    15492 1
   16028    15491    15499 1
   16029    15492    15493 1
   16030    15493    15494 1
   16031    15493    15497 1
   16032    15494    15495 1
   16033    15495    15496 1
   16034    15496    15497 1
   16035    15497    15498 1
   16036    15498    15632 1
   16037    15500    15501 1
   16038    15500    15541 1
   16039    15500    15542 1
   16040    15500    15543 1
   16041    15501    15502 1
   16042    15501    15544 1
   16043    15501    15545 1
   16044    15502    15503 1
   16045    15502    15546 1
   16046    15502    15547 1
   16047    15503    15504 1
   16048    15503    15548 1
   16049    15503    15549 1
   16050    15504    15505 1
   16051    15504    15550 1
   16052    15504    15551 1
   16053    15505    15506 1
   16054    15505    15552 1
   16055    15505    15553 1
   16056    15506    15507 1
   16057    15506    15554 1
   16058    15506    15555 1
   16059    15507    15508 1
   16060    15507    15556 1
   16061    15507    15557 1
   16062    15508    15509 1
   16063    15508    15558 1
   16064    15508    15559 1
   16065    15509    15510 1
   16066    15509    15560 1
   16067    15509    15561 1
   16068    15510    15511 1
   16069    15510    15519 1
   16070    15510    15562 1
   16071    15511    15512 1
   16072    15511    15563 1
   16073    15511    15564 1
   16074    15512    15513 1
   16075    15512    15565 1
   16076    15512    15566 1
   16077    15513    15514 1
   16078    15513    15567 1
   16079    15513    15568 1
   16080    15514    15515 1
   16081    15514    15569 1
   16082    15514    15570 1
   16083    15515    15516 1
   16084    15515    15571 1
   16085    15515    15572 1
   16086    15516    15517 1
   16087    15516    15573 1
   16088    15516    15574 1
   16089    15517    15518 1
   16090    15517    15575 1
   16091    15517    15576 1
   16092    15518    15577 1
   16093    15518    15578 1
   16094    15518    15579 1
   16095    15519    15520 1
   16096    15519    15580 1
   16097    15519    15581 1
   16098    15520    15521 1
   16099    15521    15522 1
   16100    15521    15582 1
   16101    15521    15583 1
   16102    15522    15523 1
   16103    15522    15531 1
   16104    15522    15584 1
   16105    15523    15524 1
   16106    15523    15585 1
   16107    15523    15586 1
   16108    15524    15525 1
   16109    15524    15587 1
   16110    15524    15588 1
   16111    15525    15526 1
   16112    15525    15589 1
   16113    15525    15590 1
   16114    15526    15527 1
   16115    15526    15591 1
   16116    15526    15592 1
   16117    15527    15528 1
   16118    15527    15593 1
   16119    15527    15594 1
   16120    15528    15529 1
   16121    15528    15595 1
   16122    15528    15596 1
   16123    15529    15530 1
   16124    15529    15597 1
   16125    15529    15598 1
   16126    15530    15599 1
   16127    15530    15600 1
   16128    15530    15601 1
   16129    15531    15532 1
   16130    15531    15602 1
   16131    15531    15603 1
   16132    15532    15533 1
   16133    15532    15604 1
   16134    15532    15605 1
   16135    15533    15534 1
   16136    15533    15606 1
   16137    15533    15607 1
   16138    15534    15535 1
   16139    15534    15608 1
   16140    15534    15609 1
   16141    15535    15536 1
   16142    15535    15610 1
   16143    15535    15611 1
   16144    15536    15537 1
   16145    15536    15612 1
   16146    15536    15613 1
   16147    15537    15538 1
   16148    15537    15614 1
   16149    15537    15615 1
   16150    15538    15539 1
   16151    15538    15616 1
   16152    15538    15617 1
   16153    15539    15540 1
   16154    15539    15618 1
   16155    15539    15619 1
   16156    15540    15620 1
   16157    15540    15621 1
   16158    15540    15622 1
   16159    15623    15624 1
   16160    15623    15630 1
   16161    15623    15666 1
   16162    15624    15625 1
   16163    15624    15628 1
   16164    15625    15626 1
   16165    15625    15629 1
   16166    15626    15627 1
   16167    15627    15628 1
   16168    15627    15638 1
   16169    15628    15634 1
   16170    15629    15630 1
   16171    15629    15633 1
   16172    15630    15631 1
   16173    15631    15632 1
   16174    15631    15635 1
   16175    15632    15633 1
   16176    15636    15637 1
   16177    15636    15644 1
   16178    15637    15638 1
   16179    15637    15645 1
   16180    15638    15639 1
   16181    15639    15640 1
   16182    15639    15643 1
   16183    15640    15641 1
   16184    15641    15642 1
   16185    15642    15643 1
   16186    15643    15644 1
   16187    15644    15778 1
   16188    15646    15647 1
   16189    15646    15687 1
   16190    15646    15688 1
   16191    15646    15689 1
   16192    15647    15648 1
   16193    15647    15690 1
   16194    15647    15691 1
   16195    15648    15649 1
   16196    15648    15692 1
   16197    15648    15693 1
   16198    15649    15650 1
   16199    15649    15694 1
   16200    15649    15695 1
   16201    15650    15651 1
   16202    15650    15696 1
   16203    15650    15697 1
   16204    15651    15652 1
   16205    15651    15698 1
   16206    15651    15699 1
   16207    15652    15653 1
   16208    15652    15700 1
   16209    15652    15701 1
   16210    15653    15654 1
   16211    15653    15702 1
   16212    15653    15703 1
   16213    15654    15655 1
   16214    15654    15704 1
   16215    15654    15705 1
   16216    15655    15656 1
   16217    15655    15706 1
   16218    15655    15707 1
   16219    15656    15657 1
   16220    15656    15665 1
   16221    15656    15708 1
   16222    15657    15658 1
   16223    15657    15709 1
   16224    15657    15710 1
   16225    15658    15659 1
   16226    15658    15711 1
   16227    15658    15712 1
   16228    15659    15660 1
   16229    15659    15713 1
   16230    15659    15714 1
   16231    15660    15661 1
   16232    15660    15715 1
   16233    15660    15716 1
   16234    15661    15662 1
   16235    15661    15717 1
   16236    15661    15718 1
   16237    15662    15663 1
   16238    15662    15719 1
   16239    15662    15720 1
   16240    15663    15664 1
   16241    15663    15721 1
   16242    15663    15722 1
   16243    15664    15723 1
   16244    15664    15724 1
   16245    15664    15725 1
   16246    15665    15666 1
   16247    15665    15726 1
   16248    15665    15727 1
   16249    15666    15667 1
   16250    15667    15668 1
   16251    15667    15728 1
   16252    15667    15729 1
   16253    15668    15669 1
   16254    15668    15677 1
   16255    15668    15730 1
   16256    15669    15670 1
   16257    15669    15731 1
   16258    15669    15732 1
   16259    15670    15671 1
   16260    15670    15733 1
   16261    15670    15734 1
   16262    15671    15672 1
   16263    15671    15735 1
   16264    15671    15736 1
   16265    15672    15673 1
   16266    15672    15737 1
   16267    15672    15738 1
   16268    15673    15674 1
   16269    15673    15739 1
   16270    15673    15740 1
   16271    15674    15675 1
   16272    15674    15741 1
   16273    15674    15742 1
   16274    15675    15676 1
   16275    15675    15743 1
   16276    15675    15744 1
   16277    15676    15745 1
   16278    15676    15746 1
   16279    15676    15747 1
   16280    15677    15678 1
   16281    15677    15748 1
   16282    15677    15749 1
   16283    15678    15679 1
   16284    15678    15750 1
   16285    15678    15751 1
   16286    15679    15680 1
   16287    15679    15752 1
   16288    15679    15753 1
   16289    15680    15681 1
   16290    15680    15754 1
   16291    15680    15755 1
   16292    15681    15682 1
   16293    15681    15756 1
   16294    15681    15757 1
   16295    15682    15683 1
   16296    15682    15758 1
   16297    15682    15759 1
   16298    15683    15684 1
   16299    15683    15760 1
   16300    15683    15761 1
   16301    15684    15685 1
   16302    15684    15762 1
   16303    15684    15763 1
   16304    15685    15686 1
   16305    15685    15764 1
   16306    15685    15765 1
   16307    15686    15766 1
   16308    15686    15767 1
   16309    15686    15768 1
   16310    15769    15770 1
   16311    15769    15776 1
   16312    15769    15812 1
   16313    15770    15771 1
   16314    15770    15774 1
   16315    15771    15772 1
   16316    15771    15775 1
   16317    15772    15773 1
   16318    15773    15774 1
   16319    15773    15784 1
   16320    15774    15780 1
   16321    15775    15776 1
   16322    15775    15779 1
   16323    15776    15777 1
   16324    15777    15778 1
   16325    15777    15781 1
   16326    15778    15779 1
   16327    15782    15783 1
   16328    15782    15790 1
   16329    15783    15784 1
   16330    15783    15791 1
   16331    15784    15785 1
   16332    15785    15786 1
   16333    15785    15789 1
   16334    15786    15787 1
   16335    15787    15788 1
   16336    15788    15789 1
   16337    15789    15790 1
   16338    15790    15924 1
   16339    15792    15793 1
   16340    15792    15833 1
   16341    15792    15834 1
   16342    15792    15835 1
   16343    15793    15794 1
   16344    15793    15836 1
   16345    15793    15837 1
   16346    15794    15795 1
   16347    15794    15838 1
   16348    15794    15839 1
   16349    15795    15796 1
   16350    15795    15840 1
   16351    15795    15841 1
   16352    15796    15797 1
   16353    15796    15842 1
   16354    15796    15843 1
   16355    15797    15798 1
   16356    15797    15844 1
   16357    15797    15845 1
   16358    15798    15799 1
   16359    15798    15846 1
   16360    15798    15847 1
   16361    15799    15800 1
   16362    15799    15848 1
   16363    15799    15849 1
   16364    15800    15801 1
   16365    15800    15850 1
   16366    15800    15851 1
   16367    15801    15802 1
   16368    15801    15852 1
   16369    15801    15853 1
   16370    15802    15803 1
   16371    15802    15811 1
   16372    15802    15854 1
   16373    15803    15804 1
   16374    15803    15855 1
   16375    15803    15856 1
   16376    15804    15805 1
   16377    15804    15857 1
   16378    15804    15858 1
   16379    15805    15806 1
   16380    15805    15859 1
   16381    15805    15860 1
   16382    15806    15807 1
   16383    15806    15861 1
   16384    15806    15862 1
   16385    15807    15808 1
   16386    15807    15863 1
   16387    15807    15864 1
   16388    15808    15809 1
   16389    15808    15865 1
   16390    15808    15866 1
   16391    15809    15810 1
   16392    15809    15867 1
   16393    15809    15868 1
   16394    15810    15869 1
   16395    15810    15870 1
   16396    15810    15871 1
   16397    15811    15812 1
   16398    15811    15872 1
   16399    15811    15873 1
   16400    15812    15813 1
   16401    15813    15814 1
   16402    15813    15874 1
   16403    15813    15875 1
   16404    15814    15815 1
   16405    15814    15823 1
   16406    15814    15876 1
   16407    15815    15816 1
   16408    15815    15877 1
   16409    15815    15878 1
   16410    15816    15817 1
   16411    15816    15879 1
   16412    15816    15880 1
   16413    15817    15818 1
   16414    15817    15881 1
   16415    15817    15882 1
   16416    15818    15819 1
   16417    15818    15883 1
   16418    15818    15884 1
   16419    15819    15820 1
   16420    15819    15885 1
   16421    15819    15886 1
   16422    15820    15821 1
   16423    15820    15887 1
   16424    15820    15888 1
   16425    15821    15822 1
   16426    15821    15889 1
   16427    15821    15890 1
   16428    15822    15891 1
   16429    15822    15892 1
   16430    15822    15893 1
   16431    15823    15824 1
   16432    15823    15894 1
   16433    15823    15895 1
   16434    15824    15825 1
   16435    15824    15896 1
   16436    15824    15897 1
   16437    15825    15826 1
   16438    15825    15898 1
   16439    15825    15899 1
   16440    15826    15827 1
   16441    15826    15900 1
   16442    15826    15901 1
   16443    15827    15828 1
   16444    15827    15902 1
   16445    15827    15903 1
   16446    15828    15829 1
   16447    15828    15904 1
   16448    15828    15905 1
   16449    15829    15830 1
   16450    15829    15906 1
   16451    15829    15907 1
   16452    15830    15831 1
   16453    15830    15908 1
   16454    15830    15909 1
   16455    15831    15832 1
   16456    15831    15910 1
   16457    15831    15911 1
   16458    15832    15912 1
   16459    15832    15913 1
   16460    15832    15914 1
   16461    15915    15916 1
   16462    15915    15922 1
   16463    15915    15958 1
   16464    15916    15917 1
   16465    15916    15920 1
   16466    15917    15918 1
   16467    15917    15921 1
   16468    15918    15919 1
   16469    15919    15920 1
   16470    15919    15930 1
   16471    15920    15926 1
   16472    15921    15922 1
   16473    15921    15925 1
   16474    15922    15923 1
   16475    15923    15924 1
   16476    15923    15927 1
   16477    15924    15925 1
   16478    15928    15929 1
   16479    15928    15936 1
   16480    15929    15930 1
   16481    15929    15937 1
   16482    15930    15931 1
   16483    15931    15932 1
   16484    15931    15935 1
   16485    15932    15933 1
   16486    15933    15934 1
   16487    15934    15935 1
   16488    15935    15936 1
   16489    15936    16070 1
   16490    15938    15939 1
   16491    15938    15979 1
   16492    15938    15980 1
   16493    15938    15981 1
   16494    15939    15940 1
   16495    15939    15982 1
   16496    15939    15983 1
   16497    15940    15941 1
   16498    15940    15984 1
   16499    15940    15985 1
   16500    15941    15942 1
   16501    15941    15986 1
   16502    15941    15987 1
   16503    15942    15943 1
   16504    15942    15988 1
   16505    15942    15989 1
   16506    15943    15944 1
   16507    15943    15990 1
   16508    15943    15991 1
   16509    15944    15945 1
   16510    15944    15992 1
   16511    15944    15993 1
   16512    15945    15946 1
   16513    15945    15994 1
   16514    15945    15995 1
   16515    15946    15947 1
   16516    15946    15996 1
   16517    15946    15997 1
   16518    15947    15948 1
   16519    15947    15998 1
   16520    15947    15999 1
   16521    15948    15949 1
   16522    15948    15957 1
   16523    15948    16000 1
   16524    15949    15950 1
   16525    15949    16001 1
   16526    15949    16002 1
   16527    15950    15951 1
   16528    15950    16003 1
   16529    15950    16004 1
   16530    15951    15952 1
   16531    15951    16005 1
   16532    15951    16006 1
   16533    15952    15953 1
   16534    15952    16007 1
   16535    15952    16008 1
   16536    15953    15954 1
   16537    15953    16009 1
   16538    15953    16010 1
   16539    15954    15955 1
   16540    15954    16011 1
   16541    15954    16012 1
   16542    15955    15956 1
   16543    15955    16013 1
   16544    15955    16014 1
   16545    15956    16015 1
   16546    15956    16016 1
   16547    15956    16017 1
   16548    15957    15958 1
   16549    15957    16018 1
   16550    15957    16019 1
   16551    15958    15959 1
   16552    15959    15960 1
   16553    15959    16020 1
   16554    15959    16021 1
   16555    15960    15961 1
   16556    15960    15969 1
   16557    15960    16022 1
   16558    15961    15962 1
   16559    15961    16023 1
   16560    15961    16024 1
   16561    15962    15963 1
   16562    15962    16025 1
   16563    15962    16026 1
   16564    15963    15964 1
   16565    15963    16027 1
   16566    15963    16028 1
   16567    15964    15965 1
   16568    15964    16029 1
   16569    15964    16030 1
   16570    15965    15966 1
   16571    15965    16031 1
   16572    15965    16032 1
   16573    15966    15967 1
   16574    15966    16033 1
   16575    15966    16034 1
   16576    15967    15968 1
   16577    15967    16035 1
   16578    15967    16036 1
   16579    15968    16037 1
   16580    15968    16038 1
   16581    15968    16039 1
   16582    15969    15970 1
   16583    15969    16040 1
   16584    15969    16041 1
   16585    15970    15971 1
   16586    15970    16042 1
   16587    15970    16043 1
   16588    15971    15972 1
   16589    15971    16044 1
   16590    15971    16045 1
   16591    15972    15973 1
   16592    15972    16046 1
   16593    15972    16047 1
   16594    15973    15974 1
   16595    15973    16048 1
   16596    15973    16049 1
   16597    15974    15975 1
   16598    15974    16050 1
   16599    15974    16051 1
   16600    15975    15976 1
   16601    15975    16052 1
   16602    15975    16053 1
   16603    15976    15977 1
   16604    15976    16054 1
   16605    15976    16055 1
   16606    15977    15978 1
   16607    15977    16056 1
   16608    15977    16057 1
   16609    15978    16058 1
   16610    15978    16059 1
   16611    15978    16060 1
   16612    16061    16062 1
   16613    16061    16068 1
   16614    16061    16104 1
   16615    16062    16063 1
   16616    16062    16066 1
   16617    16063    16064 1
   16618    16063    16067 1
   16619    16064    16065 1
   16620    16065    16066 1
   16621    16065    16076 1
   16622    16066    16072 1
   16623    16067    16068 1
   16624    16067    16071 1
   16625    16068    16069 1
   16626    16069    16070 1
   16627    16069    16073 1
   16628    16070    16071 1
   16629    16074    16075 1
   16630    16074    16082 1
   16631    16075    16076 1
   16632    16075    16083 1
   16633    16076    16077 1
   16634    16077    16078 1
   16635    16077    16081 1
   16636    16078    16079 1
   16637    16079    16080 1
   16638    16080    16081 1
   16639    16081    16082 1
   16640    16082    16216 1
   16641    16084    16085 1
   16642    16084    16125 1
   16643    16084    16126 1
   16644    16084    16127 1
   16645    16085    16086 1
   16646    16085    16128 1
   16647    16085    16129 1
   16648    16086    16087 1
   16649    16086    16130 1
   16650    16086    16131 1
   16651    16087    16088 1
   16652    16087    16132 1
   16653    16087    16133 1
   16654    16088    16089 1
   16655    16088    16134 1
   16656    16088    16135 1
   16657    16089    16090 1
   16658    16089    16136 1
   16659    16089    16137 1
   16660    16090    16091 1
   16661    16090    16138 1
   16662    16090    16139 1
   16663    16091    16092 1
   16664    16091    16140 1
   16665    16091    16141 1
   16666    16092    16093 1
   16667    16092    16142 1
   16668    16092    16143 1
   16669    16093    16094 1
   16670    16093    16144 1
   16671    16093    16145 1
   16672    16094    16095 1
   16673    16094    16103 1
   16674    16094    16146 1
   16675    16095    16096 1
   16676    16095    16147 1
   16677    16095    16148 1
   16678    16096    16097 1
   16679    16096    16149 1
   16680    16096    16150 1
   16681    16097    16098 1
   16682    16097    16151 1
   16683    16097    16152 1
   16684    16098    16099 1
   16685    16098    16153 1
   16686    16098    16154 1
   16687    16099    16100 1
   16688    16099    16155 1
   16689    16099    16156 1
   16690    16100    16101 1
   16691    16100    16157 1
   16692    16100    16158 1
   16693    16101    16102 1
   16694    16101    16159 1
   16695    16101    16160 1
   16696    16102    16161 1
   16697    16102    16162 1
   16698    16102    16163 1
   16699    16103    16104 1
   16700    16103    16164 1
   16701    16103    16165 1
   16702    16104    16105 1
   16703    16105    16106 1
   16704    16105    16166 1
   16705    16105    16167 1
   16706    16106    16107 1
   16707    16106    16115 1
   16708    16106    16168 1
   16709    16107    16108 1
   16710    16107    16169 1
   16711    16107    16170 1
   16712    16108    16109 1
   16713    16108    16171 1
   16714    16108    16172 1
   16715    16109    16110 1
   16716    16109    16173 1
   16717    16109    16174 1
   16718    16110    16111 1
   16719    16110    16175 1
   16720    16110    16176 1
   16721    16111    16112 1
   16722    16111    16177 1
   16723    16111    16178 1
   16724    16112    16113 1
   16725    16112    16179 1
   16726    16112    16180 1
   16727    16113    16114 1
   16728    16113    16181 1
   16729    16113    16182 1
   16730    16114    16183 1
   16731    16114    16184 1
   16732    16114    16185 1
   16733    16115    16116 1
   16734    16115    16186 1
   16735    16115    16187 1
   16736    16116    16117 1
   16737    16116    16188 1
   16738    16116    16189 1
   16739    16117    16118 1
   16740    16117    16190 1
   16741    16117    16191 1
   16742    16118    16119 1
   16743    16118    16192 1
   16744    16118    16193 1
   16745    16119    16120 1
   16746    16119    16194 1
   16747    16119    16195 1
   16748    16120    16121 1
   16749    16120    16196 1
   16750    16120    16197 1
   16751    16121    16122 1
   16752    16121    16198 1
   16753    16121    16199 1
   16754    16122    16123 1
   16755    16122    16200 1
   16756    16122    16201 1
   16757    16123    16124 1
   16758    16123    16202 1
   16759    16123    16203 1
   16760    16124    16204 1
   16761    16124    16205 1
   16762    16124    16206 1
   16763    16207    16208 1
   16764    16207    16214 1
   16765    16207    16250 1
   16766    16208    16209 1
   16767    16208    16212 1
   16768    16209    16210 1
   16769    16209    16213 1
   16770    16210    16211 1
   16771    16211    16212 1
   16772    16211    16222 1
   16773    16212    16218 1
   16774    16213    16214 1
   16775    16213    16217 1
   16776    16214    16215 1
   16777    16215    16216 1
   16778    16215    16219 1
   16779    16216    16217 1
   16780    16220    16221 1
   16781    16220    16228 1
   16782    16221    16222 1
   16783    16221    16229 1
   16784    16222    16223 1
   16785    16223    16224 1
   16786    16223    16227 1
   16787    16224    16225 1
   16788    16225    16226 1
   16789    16226    16227 1
   16790    16227    16228 1
   16791    16228    16362 1
   16792    16230    16231 1
   16793    16230    16271 1
   16794    16230    16272 1
   16795    16230    16273 1
   16796    16231    16232 1
   16797    16231    16274 1
   16798    16231    16275 1
   16799    16232    16233 1
   16800    16232    16276 1
   16801    16232    16277 1
   16802    16233    16234 1
   16803    16233    16278 1
   16804    16233    16279 1
   16805    16234    16235 1
   16806    16234    16280 1
   16807    16234    16281 1
   16808    16235    16236 1
   16809    16235    16282 1
   16810    16235    16283 1
   16811    16236    16237 1
   16812    16236    16284 1
   16813    16236    16285 1
   16814    16237    16238 1
   16815    16237    16286 1
   16816    16237    16287 1
   16817    16238    16239 1
   16818    16238    16288 1
   16819    16238    16289 1
   16820    16239    16240 1
   16821    16239    16290 1
   16822    16239    16291 1
   16823    16240    16241 1
   16824    16240    16249 1
   16825    16240    16292 1
   16826    16241    16242 1
   16827    16241    16293 1
   16828    16241    16294 1
   16829    16242    16243 1
   16830    16242    16295 1
   16831    16242    16296 1
   16832    16243    16244 1
   16833    16243    16297 1
   16834    16243    16298 1
   16835    16244    16245 1
   16836    16244    16299 1
   16837    16244    16300 1
   16838    16245    16246 1
   16839    16245    16301 1
   16840    16245    16302 1
   16841    16246    16247 1
   16842    16246    16303 1
   16843    16246    16304 1
   16844    16247    16248 1
   16845    16247    16305 1
   16846    16247    16306 1
   16847    16248    16307 1
   16848    16248    16308 1
   16849    16248    16309 1
   16850    16249    16250 1
   16851    16249    16310 1
   16852    16249    16311 1
   16853    16250    16251 1
   16854    16251    16252 1
   16855    16251    16312 1
   16856    16251    16313 1
   16857    16252    16253 1
   16858    16252    16261 1
   16859    16252    16314 1
   16860    16253    16254 1
   16861    16253    16315 1
   16862    16253    16316 1
   16863    16254    16255 1
   16864    16254    16317 1
   16865    16254    16318 1
   16866    16255    16256 1
   16867    16255    16319 1
   16868    16255    16320 1
   16869    16256    16257 1
   16870    16256    16321 1
   16871    16256    16322 1
   16872    16257    16258 1
   16873    16257    16323 1
   16874    16257    16324 1
   16875    16258    16259 1
   16876    16258    16325 1
   16877    16258    16326 1
   16878    16259    16260 1
   16879    16259    16327 1
   16880    16259    16328 1
   16881    16260    16329 1
   16882    16260    16330 1
   16883    16260    16331 1
   16884    16261    16262 1
   16885    16261    16332 1
   16886    16261    16333 1
   16887    16262    16263 1
   16888    16262    16334 1
   16889    16262    16335 1
   16890    16263    16264 1
   16891    16263    16336 1
   16892    16263    16337 1
   16893    16264    16265 1
   16894    16264    16338 1
   16895    16264    16339 1
   16896    16265    16266 1
   16897    16265    16340 1
   16898    16265    16341 1
   16899    16266    16267 1
   16900    16266    16342 1
   16901    16266    16343 1
   16902    16267    16268 1
   16903    16267    16344 1
   16904    16267    16345 1
   16905    16268    16269 1
   16906    16268    16346 1
   16907    16268    16347 1
   16908    16269    16270 1
   16909    16269    16348 1
   16910    16269    16349 1
   16911    16270    16350 1
   16912    16270    16351 1
   16913    16270    16352 1
   16914    16353    16354 1
   16915    16353    16360 1
   16916    16353    16396 1
   16917    16354    16355 1
   16918    16354    16358 1
   16919    16355    16356 1
   16920    16355    16359 1
   16921    16356    16357 1
   16922    16357    16358 1
   16923    16357    16368 1
   16924    16358    16364 1
   16925    16359    16360 1
   16926    16359    16363 1
   16927    16360    16361 1
   16928    16361    16362 1
   16929    16361    16365 1
   16930    16362    16363 1
   16931    16366    16367 1
   16932    16366    16374 1
   16933    16367    16368 1
   16934    16367    16375 1
   16935    16368    16369 1
   16936    16369    16370 1
   16937    16369    16373 1
   16938    16370    16371 1
   16939    16371    16372 1
   16940    16372    16373 1
   16941    16373    16374 1
   16942    16374    16508 1
   16943    16376    16377 1
   16944    16376    16417 1
   16945    16376    16418 1
   16946    16376    16419 1
   16947    16377    16378 1
   16948    16377    16420 1
   16949    16377    16421 1
   16950    16378    16379 1
   16951    16378    16422 1
   16952    16378    16423 1
   16953    16379    16380 1
   16954    16379    16424 1
   16955    16379    16425 1
   16956    16380    16381 1
   16957    16380    16426 1
   16958    16380    16427 1
   16959    16381    16382 1
   16960    16381    16428 1
   16961    16381    16429 1
   16962    16382    16383 1
   16963    16382    16430 1
   16964    16382    16431 1
   16965    16383    16384 1
   16966    16383    16432 1
   16967    16383    16433 1
   16968    16384    16385 1
   16969    16384    16434 1
   16970    16384    16435 1
   16971    16385    16386 1
   16972    16385    16436 1
   16973    16385    16437 1
   16974    16386    16387 1
   16975    16386    16395 1
   16976    16386    16438 1
   16977    16387    16388 1
   16978    16387    16439 1
   16979    16387    16440 1
   16980    16388    16389 1
   16981    16388    16441 1
   16982    16388    16442 1
   16983    16389    16390 1
   16984    16389    16443 1
   16985    16389    16444 1
   16986    16390    16391 1
   16987    16390    16445 1
   16988    16390    16446 1
   16989    16391    16392 1
   16990    16391    16447 1
   16991    16391    16448 1
   16992    16392    16393 1
   16993    16392    16449 1
   16994    16392    16450 1
   16995    16393    16394 1
   16996    16393    16451 1
   16997    16393    16452 1
   16998    16394    16453 1
   16999    16394    16454 1
   17000    16394    16455 1
   17001    16395    16396 1
   17002    16395    16456 1
   17003    16395    16457 1
   17004    16396    16397 1
   17005    16397    16398 1
   17006    16397    16458 1
   17007    16397    16459 1
   17008    16398    16399 1
   17009    16398    16407 1
   17010    16398    16460 1
   17011    16399    16400 1
   17012    16399    16461 1
   17013    16399    16462 1
   17014    16400    16401 1
   17015    16400    16463 1
   17016    16400    16464 1
   17017    16401    16402 1
   17018    16401    16465 1
   17019    16401    16466 1
   17020    16402    16403 1
   17021    16402    16467 1
   17022    16402    16468 1
   17023    16403    16404 1
   17024    16403    16469 1
   17025    16403    16470 1
   17026    16404    16405 1
   17027    16404    16471 1
   17028    16404    16472 1
   17029    16405    16406 1
   17030    16405    16473 1
   17031    16405    16474 1
   17032    16406    16475 1
   17033    16406    16476 1
   17034    16406    16477 1
   17035    16407    16408 1
   17036    16407    16478 1
   17037    16407    16479 1
   17038    16408    16409 1
   17039    16408    16480 1
   17040    16408    16481 1
   17041    16409    16410 1
   17042    16409    16482 1
   17043    16409    16483 1
   17044    16410    16411 1
   17045    16410    16484 1
   17046    16410    16485 1
   17047    16411    16412 1
   17048    16411    16486 1
   17049    16411    16487 1
   17050    16412    16413 1
   17051    16412    16488 1
   17052    16412    16489 1
   17053    16413    16414 1
   17054    16413    16490 1
   17055    16413    16491 1
   17056    16414    16415 1
   17057    16414    16492 1
   17058    16414    16493 1
   17059    16415    16416 1
   17060    16415    16494 1
   17061    16415    16495 1
   17062    16416    16496 1
   17063    16416    16497 1
   17064    16416    16498 1
   17065    16499    16500 1
   17066    16499    16506 1
   17067    16499    16542 1
   17068    16500    16501 1
   17069    16500    16504 1
   17070    16501    16502 1
   17071    16501    16505 1
   17072    16502    16503 1
   17073    16503    16504 1
   17074    16503    16514 1
   17075    16504    16510 1
   17076    16505    16506 1
   17077    16505    16509 1
   17078    16506    16507 1
   17079    16507    16508 1
   17080    16507    16511 1
   17081    16508    16509 1
   17082    16512    16513 1
   17083    16512    16520 1
   17084    16513    16514 1
   17085    16513    16521 1
   17086    16514    16515 1
   17087    16515    16516 1
   17088    16515    16519 1
   17089    16516    16517 1
   17090    16517    16518 1
   17091    16518    16519 1
   17092    16519    16520 1
   17093    16520    16654 1
   17094    16522    16523 1
   17095    16522    16563 1
   17096    16522    16564 1
   17097    16522    16565 1
   17098    16523    16524 1
   17099    16523    16566 1
   17100    16523    16567 1
   17101    16524    16525 1
   17102    16524    16568 1
   17103    16524    16569 1
   17104    16525    16526 1
   17105    16525    16570 1
   17106    16525    16571 1
   17107    16526    16527 1
   17108    16526    16572 1
   17109    16526    16573 1
   17110    16527    16528 1
   17111    16527    16574 1
   17112    16527    16575 1
   17113    16528    16529 1
   17114    16528    16576 1
   17115    16528    16577 1
   17116    16529    16530 1
   17117    16529    16578 1
   17118    16529    16579 1
   17119    16530    16531 1
   17120    16530    16580 1
   17121    16530    16581 1
   17122    16531    16532 1
   17123    16531    16582 1
   17124    16531    16583 1
   17125    16532    16533 1
   17126    16532    16541 1
   17127    16532    16584 1
   17128    16533    16534 1
   17129    16533    16585 1
   17130    16533    16586 1
   17131    16534    16535 1
   17132    16534    16587 1
   17133    16534    16588 1
   17134    16535    16536 1
   17135    16535    16589 1
   17136    16535    16590 1
   17137    16536    16537 1
   17138    16536    16591 1
   17139    16536    16592 1
   17140    16537    16538 1
   17141    16537    16593 1
   17142    16537    16594 1
   17143    16538    16539 1
   17144    16538    16595 1
   17145    16538    16596 1
   17146    16539    16540 1
   17147    16539    16597 1
   17148    16539    16598 1
   17149    16540    16599 1
   17150    16540    16600 1
   17151    16540    16601 1
   17152    16541    16542 1
   17153    16541    16602 1
   17154    16541    16603 1
   17155    16542    16543 1
   17156    16543    16544 1
   17157    16543    16604 1
   17158    16543    16605 1
   17159    16544    16545 1
   17160    16544    16553 1
   17161    16544    16606 1
   17162    16545    16546 1
   17163    16545    16607 1
   17164    16545    16608 1
   17165    16546    16547 1
   17166    16546    16609 1
   17167    16546    16610 1
   17168    16547    16548 1
   17169    16547    16611 1
   17170    16547    16612 1
   17171    16548    16549 1
   17172    16548    16613 1
   17173    16548    16614 1
   17174    16549    16550 1
   17175    16549    16615 1
   17176    16549    16616 1
   17177    16550    16551 1
   17178    16550    16617 1
   17179    16550    16618 1
   17180    16551    16552 1
   17181    16551    16619 1
   17182    16551    16620 1
   17183    16552    16621 1
   17184    16552    16622 1
   17185    16552    16623 1
   17186    16553    16554 1
   17187    16553    16624 1
   17188    16553    16625 1
   17189    16554    16555 1
   17190    16554    16626 1
   17191    16554    16627 1
   17192    16555    16556 1
   17193    16555    16628 1
   17194    16555    16629 1
   17195    16556    16557 1
   17196    16556    16630 1
   17197    16556    16631 1
   17198    16557    16558 1
   17199    16557    16632 1
   17200    16557    16633 1
   17201    16558    16559 1
   17202    16558    16634 1
   17203    16558    16635 1
   17204    16559    16560 1
   17205    16559    16636 1
   17206    16559    16637 1
   17207    16560    16561 1
   17208    16560    16638 1
   17209    16560    16639 1
   17210    16561    16562 1
   17211    16561    16640 1
   17212    16561    16641 1
   17213    16562    16642 1
   17214    16562    16643 1
   17215    16562    16644 1
   17216    16645    16646 1
   17217    16645    16652 1
   17218    16645    16688 1
   17219    16646    16647 1
   17220    16646    16650 1
   17221    16647    16648 1
   17222    16647    16651 1
   17223    16648    16649 1
   17224    16649    16650 1
   17225    16649    16660 1
   17226    16650    16656 1
   17227    16651    16652 1
   17228    16651    16655 1
   17229    16652    16653 1
   17230    16653    16654 1
   17231    16653    16657 1
   17232    16654    16655 1
   17233    16658    16659 1
   17234    16658    16666 1
   17235    16659    16660 1
   17236    16659    16667 1
   17237    16660    16661 1
   17238    16661    16662 1
   17239    16661    16665 1
   17240    16662    16663 1
   17241    16663    16664 1
   17242    16664    16665 1
   17243    16665    16666 1
   17244    16666    16800 1
   17245    16668    16669 1
   17246    16668    16709 1
   17247    16668    16710 1
   17248    16668    16711 1
   17249    16669    16670 1
   17250    16669    16712 1
   17251    16669    16713 1
   17252    16670    16671 1
   17253    16670    16714 1
   17254    16670    16715 1
   17255    16671    16672 1
   17256    16671    16716 1
   17257    16671    16717 1
   17258    16672    16673 1
   17259    16672    16718 1
   17260    16672    16719 1
   17261    16673    16674 1
   17262    16673    16720 1
   17263    16673    16721 1
   17264    16674    16675 1
   17265    16674    16722 1
   17266    16674    16723 1
   17267    16675    16676 1
   17268    16675    16724 1
   17269    16675    16725 1
   17270    16676    16677 1
   17271    16676    16726 1
   17272    16676    16727 1
   17273    16677    16678 1
   17274    16677    16728 1
   17275    16677    16729 1
   17276    16678    16679 1
   17277    16678    16687 1
   17278    16678    16730 1
   17279    16679    16680 1
   17280    16679    16731 1
   17281    16679    16732 1
   17282    16680    16681 1
   17283    16680    16733 1
   17284    16680    16734 1
   17285    16681    16682 1
   17286    16681    16735 1
   17287    16681    16736 1
   17288    16682    16683 1
   17289    16682    16737 1
   17290    16682    16738 1
   17291    16683    16684 1
   17292    16683    16739 1
   17293    16683    16740 1
   17294    16684    16685 1
   17295    16684    16741 1
   17296    16684    16742 1
   17297    16685    16686 1
   17298    16685    16743 1
   17299    16685    16744 1
   17300    16686    16745 1
   17301    16686    16746 1
   17302    16686    16747 1
   17303    16687    16688 1
   17304    16687    16748 1
   17305    16687    16749 1
   17306    16688    16689 1
   17307    16689    16690 1
   17308    16689    16750 1
   17309    16689    16751 1
   17310    16690    16691 1
   17311    16690    16699 1
   17312    16690    16752 1
   17313    16691    16692 1
   17314    16691    16753 1
   17315    16691    16754 1
   17316    16692    16693 1
   17317    16692    16755 1
   17318    16692    16756 1
   17319    16693    16694 1
   17320    16693    16757 1
   17321    16693    16758 1
   17322    16694    16695 1
   17323    16694    16759 1
   17324    16694    16760 1
   17325    16695    16696 1
   17326    16695    16761 1
   17327    16695    16762 1
   17328    16696    16697 1
   17329    16696    16763 1
   17330    16696    16764 1
   17331    16697    16698 1
   17332    16697    16765 1
   17333    16697    16766 1
   17334    16698    16767 1
   17335    16698    16768 1
   17336    16698    16769 1
   17337    16699    16700 1
   17338    16699    16770 1
   17339    16699    16771 1
   17340    16700    16701 1
   17341    16700    16772 1
   17342    16700    16773 1
   17343    16701    16702 1
   17344    16701    16774 1
   17345    16701    16775 1
   17346    16702    16703 1
   17347    16702    16776 1
   17348    16702    16777 1
   17349    16703    16704 1
   17350    16703    16778 1
   17351    16703    16779 1
   17352    16704    16705 1
   17353    16704    16780 1
   17354    16704    16781 1
   17355    16705    16706 1
   17356    16705    16782 1
   17357    16705    16783 1
   17358    16706    16707 1
   17359    16706    16784 1
   17360    16706    16785 1
   17361    16707    16708 1
   17362    16707    16786 1
   17363    16707    16787 1
   17364    16708    16788 1
   17365    16708    16789 1
   17366    16708    16790 1
   17367    16791    16792 1
   17368    16791    16798 1
   17369    16791    16834 1
   17370    16792    16793 1
   17371    16792    16796 1
   17372    16793    16794 1
   17373    16793    16797 1
   17374    16794    16795 1
   17375    16795    16796 1
   17376    16795    16806 1
   17377    16796    16802 1
   17378    16797    16798 1
   17379    16797    16801 1
   17380    16798    16799 1
   17381    16799    16800 1
   17382    16799    16803 1
   17383    16800    16801 1
   17384    16804    16805 1
   17385    16804    16812 1
   17386    16805    16806 1
   17387    16805    16813 1
   17388    16806    16807 1
   17389    16807    16808 1
   17390    16807    16811 1
   17391    16808    16809 1
   17392    16809    16810 1
   17393    16810    16811 1
   17394    16811    16812 1
   17395    16812    16946 1
   17396    16814    16815 1
   17397    16814    16855 1
   17398    16814    16856 1
   17399    16814    16857 1
   17400    16815    16816 1
   17401    16815    16858 1
   17402    16815    16859 1
   17403    16816    16817 1
   17404    16816    16860 1
   17405    16816    16861 1
   17406    16817    16818 1
   17407    16817    16862 1
   17408    16817    16863 1
   17409    16818    16819 1
   17410    16818    16864 1
   17411    16818    16865 1
   17412    16819    16820 1
   17413    16819    16866 1
   17414    16819    16867 1
   17415    16820    16821 1
   17416    16820    16868 1
   17417    16820    16869 1
   17418    16821    16822 1
   17419    16821    16870 1
   17420    16821    16871 1
   17421    16822    16823 1
   17422    16822    16872 1
   17423    16822    16873 1
   17424    16823    16824 1
   17425    16823    16874 1
   17426    16823    16875 1
   17427    16824    16825 1
   17428    16824    16833 1
   17429    16824    16876 1
   17430    16825    16826 1
   17431    16825    16877 1
   17432    16825    16878 1
   17433    16826    16827 1
   17434    16826    16879 1
   17435    16826    16880 1
   17436    16827    16828 1
   17437    16827    16881 1
   17438    16827    16882 1
   17439    16828    16829 1
   17440    16828    16883 1
   17441    16828    16884 1
   17442    16829    16830 1
   17443    16829    16885 1
   17444    16829    16886 1
   17445    16830    16831 1
   17446    16830    16887 1
   17447    16830    16888 1
   17448    16831    16832 1
   17449    16831    16889 1
   17450    16831    16890 1
   17451    16832    16891 1
   17452    16832    16892 1
   17453    16832    16893 1
   17454    16833    16834 1
   17455    16833    16894 1
   17456    16833    16895 1
   17457    16834    16835 1
   17458    16835    16836 1
   17459    16835    16896 1
   17460    16835    16897 1
   17461    16836    16837 1
   17462    16836    16845 1
   17463    16836    16898 1
   17464    16837    16838 1
   17465    16837    16899 1
   17466    16837    16900 1
   17467    16838    16839 1
   17468    16838    16901 1
   17469    16838    16902 1
   17470    16839    16840 1
   17471    16839    16903 1
   17472    16839    16904 1
   17473    16840    16841 1
   17474    16840    16905 1
   17475    16840    16906 1
   17476    16841    16842 1
   17477    16841    16907 1
   17478    16841    16908 1
   17479    16842    16843 1
   17480    16842    16909 1
   17481    16842    16910 1
   17482    16843    16844 1
   17483    16843    16911 1
   17484    16843    16912 1
   17485    16844    16913 1
   17486    16844    16914 1
   17487    16844    16915 1
   17488    16845    16846 1
   17489    16845    16916 1
   17490    16845    16917 1
   17491    16846    16847 1
   17492    16846    16918 1
   17493    16846    16919 1
   17494    16847    16848 1
   17495    16847    16920 1
   17496    16847    16921 1
   17497    16848    16849 1
   17498    16848    16922 1
   17499    16848    16923 1
   17500    16849    16850 1
   17501    16849    16924 1
   17502    16849    16925 1
   17503    16850    16851 1
   17504    16850    16926 1
   17505    16850    16927 1
   17506    16851    16852 1
   17507    16851    16928 1
   17508    16851    16929 1
   17509    16852    16853 1
   17510    16852    16930 1
   17511    16852    16931 1
   17512    16853    16854 1
   17513    16853    16932 1
   17514    16853    16933 1
   17515    16854    16934 1
   17516    16854    16935 1
   17517    16854    16936 1
   17518    16937    16938 1
   17519    16937    16944 1
   17520    16937    16980 1
   17521    16938    16939 1
   17522    16938    16942 1
   17523    16939    16940 1
   17524    16939    16943 1
   17525    16940    16941 1
   17526    16941    16942 1
   17527    16941    16952 1
   17528    16942    16948 1
   17529    16943    16944 1
   17530    16943    16947 1
   17531    16944    16945 1
   17532    16945    16946 1
   17533    16945    16949 1
   17534    16946    16947 1
   17535    16950    16951 1
   17536    16950    16958 1
   17537    16951    16952 1
   17538    16951    16959 1
   17539    16952    16953 1
   17540    16953    16954 1
   17541    16953    16957 1
   17542    16954    16955 1
   17543    16955    16956 1
   17544    16956    16957 1
   17545    16957    16958 1
   17546    16958    17092 1
   17547    16960    16961 1
   17548    16960    17001 1
   17549    16960    17002 1
   17550    16960    17003 1
   17551    16961    16962 1
   17552    16961    17004 1
   17553    16961    17005 1
   17554    16962    16963 1
   17555    16962    17006 1
   17556    16962    17007 1
   17557    16963    16964 1
   17558    16963    17008 1
   17559    16963    17009 1
   17560    16964    16965 1
   17561    16964    17010 1
   17562    16964    17011 1
   17563    16965    16966 1
   17564    16965    17012 1
   17565    16965    17013 1
   17566    16966    16967 1
   17567    16966    17014 1
   17568    16966    17015 1
   17569    16967    16968 1
   17570    16967    17016 1
   17571    16967    17017 1
   17572    16968    16969 1
   17573    16968    17018 1
   17574    16968    17019 1
   17575    16969    16970 1
   17576    16969    17020 1
   17577    16969    17021 1
   17578    16970    16971 1
   17579    16970    16979 1
   17580    16970    17022 1
   17581    16971    16972 1
   17582    16971    17023 1
   17583    16971    17024 1
   17584    16972    16973 1
   17585    16972    17025 1
   17586    16972    17026 1
   17587    16973    16974 1
   17588    16973    17027 1
   17589    16973    17028 1
   17590    16974    16975 1
   17591    16974    17029 1
   17592    16974    17030 1
   17593    16975    16976 1
   17594    16975    17031 1
   17595    16975    17032 1
   17596    16976    16977 1
   17597    16976    17033 1
   17598    16976    17034 1
   17599    16977    16978 1
   17600    16977    17035 1
   17601    16977    17036 1
   17602    16978    17037 1
   17603    16978    17038 1
   17604    16978    17039 1
   17605    16979    16980 1
   17606    16979    17040 1
   17607    16979    17041 1
   17608    16980    16981 1
   17609    16981    16982 1
   17610    16981    17042 1
   17611    16981    17043 1
   17612    16982    16983 1
   17613    16982    16991 1
   17614    16982    17044 1
   17615    16983    16984 1
   17616    16983    17045 1
   17617    16983    17046 1
   17618    16984    16985 1
   17619    16984    17047 1
   17620    16984    17048 1
   17621    16985    16986 1
   17622    16985    17049 1
   17623    16985    17050 1
   17624    16986    16987 1
   17625    16986    17051 1
   17626    16986    17052 1
   17627    16987    16988 1
   17628    16987    17053 1
   17629    16987    17054 1
   17630    16988    16989 1
   17631    16988    17055 1
   17632    16988    17056 1
   17633    16989    16990 1
   17634    16989    17057 1
   17635    16989    17058 1
   17636    16990    17059 1
   17637    16990    17060 1
   17638    16990    17061 1
   17639    16991    16992 1
   17640    16991    17062 1
   17641    16991    17063 1
   17642    16992    16993 1
   17643    16992    17064 1
   17644    16992    17065 1
   17645    16993    16994 1
   17646    16993    17066 1
   17647    16993    17067 1
   17648    16994    16995 1
   17649    16994    17068 1
   17650    16994    17069 1
   17651    16995    16996 1
   17652    16995    17070 1
   17653    16995    17071 1
   17654    16996    16997 1
   17655    16996    17072 1
   17656    16996    17073 1
   17657    16997    16998 1
   17658    16997    17074 1
   17659    16997    17075 1
   17660    16998    16999 1
   17661    16998    17076 1
   17662    16998    17077 1
   17663    16999    17000 1
   17664    16999    17078 1
   17665    16999    17079 1
   17666    17000    17080 1
   17667    17000    17081 1
   17668    17000    17082 1
   17669    17083    17084 1
   17670    17083    17090 1
   17671    17083    17126 1
   17672    17084    17085 1
   17673    17084    17088 1
   17674    17085    17086 1
   17675    17085    17089 1
   17676    17086    17087 1
   17677    17087    17088 1
   17678    17087    17098 1
   17679    17088    17094 1
   17680    17089    17090 1
   17681    17089    17093 1
   17682    17090    17091 1
   17683    17091    17092 1
   17684    17091    17095 1
   17685    17092    17093 1
   17686    17096    17097 1
   17687    17096    17104 1
   17688    17097    17098 1
   17689    17097    17105 1
   17690    17098    17099 1
   17691    17099    17100 1
   17692    17099    17103 1
   17693    17100    17101 1
   17694    17101    17102 1
   17695    17102    17103 1
   17696    17103    17104 1
   17697    17104    17238 1
   17698    17106    17107 1
   17699    17106    17147 1
   17700    17106    17148 1
   17701    17106    17149 1
   17702    17107    17108 1
   17703    17107    17150 1
   17704    17107    17151 1
   17705    17108    17109 1
   17706    17108    17152 1
   17707    17108    17153 1
   17708    17109    17110 1
   17709    17109    17154 1
   17710    17109    17155 1
   17711    17110    17111 1
   17712    17110    17156 1
   17713    17110    17157 1
   17714    17111    17112 1
   17715    17111    17158 1
   17716    17111    17159 1
   17717    17112    17113 1
   17718    17112    17160 1
   17719    17112    17161 1
   17720    17113    17114 1
   17721    17113    17162 1
   17722    17113    17163 1
   17723    17114    17115 1
   17724    17114    17164 1
   17725    17114    17165 1
   17726    17115    17116 1
   17727    17115    17166 1
   17728    17115    17167 1
   17729    17116    17117 1
   17730    17116    17125 1
   17731    17116    17168 1
   17732    17117    17118 1
   17733    17117    17169 1
   17734    17117    17170 1
   17735    17118    17119 1
   17736    17118    17171 1
   17737    17118    17172 1
   17738    17119    17120 1
   17739    17119    17173 1
   17740    17119    17174 1
   17741    17120    17121 1
   17742    17120    17175 1
   17743    17120    17176 1
   17744    17121    17122 1
   17745    17121    17177 1
   17746    17121    17178 1
   17747    17122    17123 1
   17748    17122    17179 1
   17749    17122    17180 1
   17750    17123    17124 1
   17751    17123    17181 1
   17752    17123    17182 1
   17753    17124    17183 1
   17754    17124    17184 1
   17755    17124    17185 1
   17756    17125    17126 1
   17757    17125    17186 1
   17758    17125    17187 1
   17759    17126    17127 1
   17760    17127    17128 1
   17761    17127    17188 1
   17762    17127    17189 1
   17763    17128    17129 1
   17764    17128    17137 1
   17765    17128    17190 1
   17766    17129    17130 1
   17767    17129    17191 1
   17768    17129    17192 1
   17769    17130    17131 1
   17770    17130    17193 1
   17771    17130    17194 1
   17772    17131    17132 1
   17773    17131    17195 1
   17774    17131    17196 1
   17775    17132    17133 1
   17776    17132    17197 1
   17777    17132    17198 1
   17778    17133    17134 1
   17779    17133    17199 1
   17780    17133    17200 1
   17781    17134    17135 1
   17782    17134    17201 1
   17783    17134    17202 1
   17784    17135    17136 1
   17785    17135    17203 1
   17786    17135    17204 1
   17787    17136    17205 1
   17788    17136    17206 1
   17789    17136    17207 1
   17790    17137    17138 1
   17791    17137    17208 1
   17792    17137    17209 1
   17793    17138    17139 1
   17794    17138    17210 1
   17795    17138    17211 1
   17796    17139    17140 1
   17797    17139    17212 1
   17798    17139    17213 1
   17799    17140    17141 1
   17800    17140    17214 1
   17801    17140    17215 1
   17802    17141    17142 1
   17803    17141    17216 1
   17804    17141    17217 1
   17805    17142    17143 1
   17806    17142    17218 1
   17807    17142    17219 1
   17808    17143    17144 1
   17809    17143    17220 1
   17810    17143    17221 1
   17811    17144    17145 1
   17812    17144    17222 1
   17813    17144    17223 1
   17814    17145    17146 1
   17815    17145    17224 1
   17816    17145    17225 1
   17817    17146    17226 1
   17818    17146    17227 1
   17819    17146    17228 1
   17820    17229    17230 1
   17821    17229    17236 1
   17822    17229    17272 1
   17823    17230    17231 1
   17824    17230    17234 1
   17825    17231    17232 1
   17826    17231    17235 1
   17827    17232    17233 1
   17828    17233    17234 1
   17829    17233    17244 1
   17830    17234    17240 1
   17831    17235    17236 1
   17832    17235    17239 1
   17833    17236    17237 1
   17834    17237    17238 1
   17835    17237    17241 1
   17836    17238    17239 1
   17837    17242    17243 1
   17838    17242    17250 1
   17839    17243    17244 1
   17840    17243    17251 1
   17841    17244    17245 1
   17842    17245    17246 1
   17843    17245    17249 1
   17844    17246    17247 1
   17845    17247    17248 1
   17846    17248    17249 1
   17847    17249    17250 1
   17848    17250    17384 1
   17849    17252    17253 1
   17850    17252    17293 1
   17851    17252    17294 1
   17852    17252    17295 1
   17853    17253    17254 1
   17854    17253    17296 1
   17855    17253    17297 1
   17856    17254    17255 1
   17857    17254    17298 1
   17858    17254    17299 1
   17859    17255    17256 1
   17860    17255    17300 1
   17861    17255    17301 1
   17862    17256    17257 1
   17863    17256    17302 1
   17864    17256    17303 1
   17865    17257    17258 1
   17866    17257    17304 1
   17867    17257    17305 1
   17868    17258    17259 1
   17869    17258    17306 1
   17870    17258    17307 1
   17871    17259    17260 1
   17872    17259    17308 1
   17873    17259    17309 1
   17874    17260    17261 1
   17875    17260    17310 1
   17876    17260    17311 1
   17877    17261    17262 1
   17878    17261    17312 1
   17879    17261    17313 1
   17880    17262    17263 1
   17881    17262    17271 1
   17882    17262    17314 1
   17883    17263    17264 1
   17884    17263    17315 1
   17885    17263    17316 1
   17886    17264    17265 1
   17887    17264    17317 1
   17888    17264    17318 1
   17889    17265    17266 1
   17890    17265    17319 1
   17891    17265    17320 1
   17892    17266    17267 1
   17893    17266    17321 1
   17894    17266    17322 1
   17895    17267    17268 1
   17896    17267    17323 1
   17897    17267    17324 1
   17898    17268    17269 1
   17899    17268    17325 1
   17900    17268    17326 1
   17901    17269    17270 1
   17902    17269    17327 1
   17903    17269    17328 1
   17904    17270    17329 1
   17905    17270    17330 1
   17906    17270    17331 1
   17907    17271    17272 1
   17908    17271    17332 1
   17909    17271    17333 1
   17910    17272    17273 1
   17911    17273    17274 1
   17912    17273    17334 1
   17913    17273    17335 1
   17914    17274    17275 1
   17915    17274    17283 1
   17916    17274    17336 1
   17917    17275    17276 1
   17918    17275    17337 1
   17919    17275    17338 1
   17920    17276    17277 1
   17921    17276    17339 1
   17922    17276    17340 1
   17923    17277    17278 1
   17924    17277    17341 1
   17925    17277    17342 1
   17926    17278    17279 1
   17927    17278    17343 1
   17928    17278    17344 1
   17929    17279    17280 1
   17930    17279    17345 1
   17931    17279    17346 1
   17932    17280    17281 1
   17933    17280    17347 1
   17934    17280    17348 1
   17935    17281    17282 1
   17936    17281    17349 1
   17937    17281    17350 1
   17938    17282    17351 1
   17939    17282    17352 1
   17940    17282    17353 1
   17941    17283    17284 1
   17942    17283    17354 1
   17943    17283    17355 1
   17944    17284    17285 1
   17945    17284    17356 1
   17946    17284    17357 1
   17947    17285    17286 1
   17948    17285    17358 1
   17949    17285    17359 1
   17950    17286    17287 1
   17951    17286    17360 1
   17952    17286    17361 1
   17953    17287    17288 1
   17954    17287    17362 1
   17955    17287    17363 1
   17956    17288    17289 1
   17957    17288    17364 1
   17958    17288    17365 1
   17959    17289    17290 1
   17960    17289    17366 1
   17961    17289    17367 1
   17962    17290    17291 1
   17963    17290    17368 1
   17964    17290    17369 1
   17965    17291    17292 1
   17966    17291    17370 1
   17967    17291    17371 1
   17968    17292    17372 1
   17969    17292    17373 1
   17970    17292    17374 1
   17971    17375    17376 1
   17972    17375    17382 1
   17973    17375    17418 1
   17974    17376    17377 1
   17975    17376    17380 1
   17976    17377    17378 1
   17977    17377    17381 1
   17978    17378    17379 1
   17979    17379    17380 1
   17980    17379    17390 1
   17981    17380    17386 1
   17982    17381    17382 1
   17983    17381    17385 1
   17984    17382    17383 1
   17985    17383    17384 1
   17986    17383    17387 1
   17987    17384    17385 1
   17988    17388    17389 1
   17989    17388    17396 1
   17990    17389    17390 1
   17991    17389    17397 1
   17992    17390    17391 1
   17993    17391    17392 1
   17994    17391    17395 1
   17995    17392    17393 1
   17996    17393    17394 1
   17997    17394    17395 1
   17998    17395    17396 1
   17999    17396    17530 1
   18000    17398    17399 1
   18001    17398    17439 1
   18002    17398    17440 1
   18003    17398    17441 1
   18004    17399    17400 1
   18005    17399    17442 1
   18006    17399    17443 1
   18007    17400    17401 1
   18008    17400    17444 1
   18009    17400    17445 1
   18010    17401    17402 1
   18011    17401    17446 1
   18012    17401    17447 1
   18013    17402    17403 1
   18014    17402    17448 1
   18015    17402    17449 1
   18016    17403    17404 1
   18017    17403    17450 1
   18018    17403    17451 1
   18019    17404    17405 1
   18020    17404    17452 1
   18021    17404    17453 1
   18022    17405    17406 1
   18023    17405    17454 1
   18024    17405    17455 1
   18025    17406    17407 1
   18026    17406    17456 1
   18027    17406    17457 1
   18028    17407    17408 1
   18029    17407    17458 1
   18030    17407    17459 1
   18031    17408    17409 1
   18032    17408    17417 1
   18033    17408    17460 1
   18034    17409    17410 1
   18035    17409    17461 1
   18036    17409    17462 1
   18037    17410    17411 1
   18038    17410    17463 1
   18039    17410    17464 1
   18040    17411    17412 1
   18041    17411    17465 1
   18042    17411    17466 1
   18043    17412    17413 1
   18044    17412    17467 1
   18045    17412    17468 1
   18046    17413    17414 1
   18047    17413    17469 1
   18048    17413    17470 1
   18049    17414    17415 1
   18050    17414    17471 1
   18051    17414    17472 1
   18052    17415    17416 1
   18053    17415    17473 1
   18054    17415    17474 1
   18055    17416    17475 1
   18056    17416    17476 1
   18057    17416    17477 1
   18058    17417    17418 1
   18059    17417    17478 1
   18060    17417    17479 1
   18061    17418    17419 1
   18062    17419    17420 1
   18063    17419    17480 1
   18064    17419    17481 1
   18065    17420    17421 1
   18066    17420    17429 1
   18067    17420    17482 1
   18068    17421    17422 1
   18069    17421    17483 1
   18070    17421    17484 1
   18071    17422    17423 1
   18072    17422    17485 1
   18073    17422    17486 1
   18074    17423    17424 1
   18075    17423    17487 1
   18076    17423    17488 1
   18077    17424    17425 1
   18078    17424    17489 1
   18079    17424    17490 1
   18080    17425    17426 1
   18081    17425    17491 1
   18082    17425    17492 1
   18083    17426    17427 1
   18084    17426    17493 1
   18085    17426    17494 1
   18086    17427    17428 1
   18087    17427    17495 1
   18088    17427    17496 1
   18089    17428    17497 1
   18090    17428    17498 1
   18091    17428    17499 1
   18092    17429    17430 1
   18093    17429    17500 1
   18094    17429    17501 1
   18095    17430    17431 1
   18096    17430    17502 1
   18097    17430    17503 1
   18098    17431    17432 1
   18099    17431    17504 1
   18100    17431    17505 1
   18101    17432    17433 1
   18102    17432    17506 1
   18103    17432    17507 1
   18104    17433    17434 1
   18105    17433    17508 1
   18106    17433    17509 1
   18107    17434    17435 1
   18108    17434    17510 1
   18109    17434    17511 1
   18110    17435    17436 1
   18111    17435    17512 1
   18112    17435    17513 1
   18113    17436    17437 1
   18114    17436    17514 1
   18115    17436    17515 1
   18116    17437    17438 1
   18117    17437    17516 1
   18118    17437    17517 1
   18119    17438    17518 1
   18120    17438    17519 1
   18121    17438    17520 1
   18122    17521    17522 1
   18123    17521    17528 1
   18124    17521    17564 1
   18125    17522    17523 1
   18126    17522    17526 1
   18127    17523    17524 1
   18128    17523    17527 1
   18129    17524    17525 1
   18130    17525    17526 1
   18131    17525    17536 1
   18132    17526    17532 1
   18133    17527    17528 1
   18134    17527    17531 1
   18135    17528    17529 1
   18136    17529    17530 1
   18137    17529    17533 1
   18138    17530    17531 1
   18139    17534    17535 1
   18140    17534    17542 1
   18141    17535    17536 1
   18142    17535    17543 1
   18143    17536    17537 1
   18144    17537    17538 1
   18145    17537    17541 1
   18146    17538    17539 1
   18147    17539    17540 1
   18148    17540    17541 1
   18149    17541    17542 1
   18150    17542    17676 1
   18151    17544    17545 1
   18152    17544    17585 1
   18153    17544    17586 1
   18154    17544    17587 1
   18155    17545    17546 1
   18156    17545    17588 1
   18157    17545    17589 1
   18158    17546    17547 1
   18159    17546    17590 1
   18160    17546    17591 1
   18161    17547    17548 1
   18162    17547    17592 1
   18163    17547    17593 1
   18164    17548    17549 1
   18165    17548    17594 1
   18166    17548    17595 1
   18167    17549    17550 1
   18168    17549    17596 1
   18169    17549    17597 1
   18170    17550    17551 1
   18171    17550    17598 1
   18172    17550    17599 1
   18173    17551    17552 1
   18174    17551    17600 1
   18175    17551    17601 1
   18176    17552    17553 1
   18177    17552    17602 1
   18178    17552    17603 1
   18179    17553    17554 1
   18180    17553    17604 1
   18181    17553    17605 1
   18182    17554    17555 1
   18183    17554    17563 1
   18184    17554    17606 1
   18185    17555    17556 1
   18186    17555    17607 1
   18187    17555    17608 1
   18188    17556    17557 1
   18189    17556    17609 1
   18190    17556    17610 1
   18191    17557    17558 1
   18192    17557    17611 1
   18193    17557    17612 1
   18194    17558    17559 1
   18195    17558    17613 1
   18196    17558    17614 1
   18197    17559    17560 1
   18198    17559    17615 1
   18199    17559    17616 1
   18200    17560    17561 1
   18201    17560    17617 1
   18202    17560    17618 1
   18203    17561    17562 1
   18204    17561    17619 1
   18205    17561    17620 1
   18206    17562    17621 1
   18207    17562    17622 1
   18208    17562    17623 1
   18209    17563    17564 1
   18210    17563    17624 1
   18211    17563    17625 1
   18212    17564    17565 1
   18213    17565    17566 1
   18214    17565    17626 1
   18215    17565    17627 1
   18216    17566    17567 1
   18217    17566    17575 1
   18218    17566    17628 1
   18219    17567    17568 1
   18220    17567    17629 1
   18221    17567    17630 1
   18222    17568    17569 1
   18223    17568    17631 1
   18224    17568    17632 1
   18225    17569    17570 1
   18226    17569    17633 1
   18227    17569    17634 1
   18228    17570    17571 1
   18229    17570    17635 1
   18230    17570    17636 1
   18231    17571    17572 1
   18232    17571    17637 1
   18233    17571    17638 1
   18234    17572    17573 1
   18235    17572    17639 1
   18236    17572    17640 1
   18237    17573    17574 1
   18238    17573    17641 1
   18239    17573    17642 1
   18240    17574    17643 1
   18241    17574    17644 1
   18242    17574    17645 1
   18243    17575    17576 1
   18244    17575    17646 1
   18245    17575    17647 1
   18246    17576    17577 1
   18247    17576    17648 1
   18248    17576    17649 1
   18249    17577    17578 1
   18250    17577    17650 1
   18251    17577    17651 1
   18252    17578    17579 1
   18253    17578    17652 1
   18254    17578    17653 1
   18255    17579    17580 1
   18256    17579    17654 1
   18257    17579    17655 1
   18258    17580    17581 1
   18259    17580    17656 1
   18260    17580    17657 1
   18261    17581    17582 1
   18262    17581    17658 1
   18263    17581    17659 1
   18264    17582    17583 1
   18265    17582    17660 1
   18266    17582    17661 1
   18267    17583    17584 1
   18268    17583    17662 1
   18269    17583    17663 1
   18270    17584    17664 1
   18271    17584    17665 1
   18272    17584    17666 1
   18273    17667    17668 1
   18274    17667    17674 1
   18275    17667    17710 1
   18276    17668    17669 1
   18277    17668    17672 1
   18278    17669    17670 1
   18279    17669    17673 1
   18280    17670    17671 1
   18281    17671    17672 1
   18282    17671    17682 1
   18283    17672    17678 1
   18284    17673    17674 1
   18285    17673    17677 1
   18286    17674    17675 1
   18287    17675    17676 1
   18288    17675    17679 1
   18289    17676    17677 1
   18290    17680    17681 1
   18291    17680    17688 1
   18292    17681    17682 1
   18293    17681    17689 1
   18294    17682    17683 1
   18295    17683    17684 1
   18296    17683    17687 1
   18297    17684    17685 1
   18298    17685    17686 1
   18299    17686    17687 1
   18300    17687    17688 1
   18301    17688    17822 1
   18302    17690    17691 1
   18303    17690    17731 1
   18304    17690    17732 1
   18305    17690    17733 1
   18306    17691    17692 1
   18307    17691    17734 1
   18308    17691    17735 1
   18309    17692    17693 1
   18310    17692    17736 1
   18311    17692    17737 1
   18312    17693    17694 1
   18313    17693    17738 1
   18314    17693    17739 1
   18315    17694    17695 1
   18316    17694    17740 1
   18317    17694    17741 1
   18318    17695    17696 1
   18319    17695    17742 1
   18320    17695    17743 1
   18321    17696    17697 1
   18322    17696    17744 1
   18323    17696    17745 1
   18324    17697    17698 1
   18325    17697    17746 1
   18326    17697    17747 1
   18327    17698    17699 1
   18328    17698    17748 1
   18329    17698    17749 1
   18330    17699    17700 1
   18331    17699    17750 1
   18332    17699    17751 1
   18333    17700    17701 1
   18334    17700    17709 1
   18335    17700    17752 1
   18336    17701    17702 1
   18337    17701    17753 1
   18338    17701    17754 1
   18339    17702    17703 1
   18340    17702    17755 1
   18341    17702    17756 1
   18342    17703    17704 1
   18343    17703    17757 1
   18344    17703    17758 1
   18345    17704    17705 1
   18346    17704    17759 1
   18347    17704    17760 1
   18348    17705    17706 1
   18349    17705    17761 1
   18350    17705    17762 1
   18351    17706    17707 1
   18352    17706    17763 1
   18353    17706    17764 1
   18354    17707    17708 1
   18355    17707    17765 1
   18356    17707    17766 1
   18357    17708    17767 1
   18358    17708    17768 1
   18359    17708    17769 1
   18360    17709    17710 1
   18361    17709    17770 1
   18362    17709    17771 1
   18363    17710    17711 1
   18364    17711    17712 1
   18365    17711    17772 1
   18366    17711    17773 1
   18367    17712    17713 1
   18368    17712    17721 1
   18369    17712    17774 1
   18370    17713    17714 1
   18371    17713    17775 1
   18372    17713    17776 1
   18373    17714    17715 1
   18374    17714    17777 1
   18375    17714    17778 1
   18376    17715    17716 1
   18377    17715    17779 1
   18378    17715    17780 1
   18379    17716    17717 1
   18380    17716    17781 1
   18381    17716    17782 1
   18382    17717    17718 1
   18383    17717    17783 1
   18384    17717    17784 1
   18385    17718    17719 1
   18386    17718    17785 1
   18387    17718    17786 1
   18388    17719    17720 1
   18389    17719    17787 1
   18390    17719    17788 1
   18391    17720    17789 1
   18392    17720    17790 1
   18393    17720    17791 1
   18394    17721    17722 1
   18395    17721    17792 1
   18396    17721    17793 1
   18397    17722    17723 1
   18398    17722    17794 1
   18399    17722    17795 1
   18400    17723    17724 1
   18401    17723    17796 1
   18402    17723    17797 1
   18403    17724    17725 1
   18404    17724    17798 1
   18405    17724    17799 1
   18406    17725    17726 1
   18407    17725    17800 1
   18408    17725    17801 1
   18409    17726    17727 1
   18410    17726    17802 1
   18411    17726    17803 1
   18412    17727    17728 1
   18413    17727    17804 1
   18414    17727    17805 1
   18415    17728    17729 1
   18416    17728    17806 1
   18417    17728    17807 1
   18418    17729    17730 1
   18419    17729    17808 1
   18420    17729    17809 1
   18421    17730    17810 1
   18422    17730    17811 1
   18423    17730    17812 1
   18424    17813    17814 1
   18425    17813    17820 1
   18426    17813    17856 1
   18427    17814    17815 1
   18428    17814    17818 1
   18429    17815    17816 1
   18430    17815    17819 1
   18431    17816    17817 1
   18432    17817    17818 1
   18433    17817    17828 1
   18434    17818    17824 1
   18435    17819    17820 1
   18436    17819    17823 1
   18437    17820    17821 1
   18438    17821    17822 1
   18439    17821    17825 1
   18440    17822    17823 1
   18441    17826    17827 1
   18442    17826    17834 1
   18443    17827    17828 1
   18444    17827    17835 1
   18445    17828    17829 1
   18446    17829    17830 1
   18447    17829    17833 1
   18448    17830    17831 1
   18449    17831    17832 1
   18450    17832    17833 1
   18451    17833    17834 1
   18452    17834    17968 1
   18453    17836    17837 1
   18454    17836    17877 1
   18455    17836    17878 1
   18456    17836    17879 1
   18457    17837    17838 1
   18458    17837    17880 1
   18459    17837    17881 1
   18460    17838    17839 1
   18461    17838    17882 1
   18462    17838    17883 1
   18463    17839    17840 1
   18464    17839    17884 1
   18465    17839    17885 1
   18466    17840    17841 1
   18467    17840    17886 1
   18468    17840    17887 1
   18469    17841    17842 1
   18470    17841    17888 1
   18471    17841    17889 1
   18472    17842    17843 1
   18473    17842    17890 1
   18474    17842    17891 1
   18475    17843    17844 1
   18476    17843    17892 1
   18477    17843    17893 1
   18478    17844    17845 1
   18479    17844    17894 1
   18480    17844    17895 1
   18481    17845    17846 1
   18482    17845    17896 1
   18483    17845    17897 1
   18484    17846    17847 1
   18485    17846    17855 1
   18486    17846    17898 1
   18487    17847    17848 1
   18488    17847    17899 1
   18489    17847    17900 1
   18490    17848    17849 1
   18491    17848    17901 1
   18492    17848    17902 1
   18493    17849    17850 1
   18494    17849    17903 1
   18495    17849    17904 1
   18496    17850    17851 1
   18497    17850    17905 1
   18498    17850    17906 1
   18499    17851    17852 1
   18500    17851    17907 1
   18501    17851    17908 1
   18502    17852    17853 1
   18503    17852    17909 1
   18504    17852    17910 1
   18505    17853    17854 1
   18506    17853    17911 1
   18507    17853    17912 1
   18508    17854    17913 1
   18509    17854    17914 1
   18510    17854    17915 1
   18511    17855    17856 1
   18512    17855    17916 1
   18513    17855    17917 1
   18514    17856    17857 1
   18515    17857    17858 1
   18516    17857    17918 1
   18517    17857    17919 1
   18518    17858    17859 1
   18519    17858    17867 1
   18520    17858    17920 1
   18521    17859    17860 1
   18522    17859    17921 1
   18523    17859    17922 1
   18524    17860    17861 1
   18525    17860    17923 1
   18526    17860    17924 1
   18527    17861    17862 1
   18528    17861    17925 1
   18529    17861    17926 1
   18530    17862    17863 1
   18531    17862    17927 1
   18532    17862    17928 1
   18533    17863    17864 1
   18534    17863    17929 1
   18535    17863    17930 1
   18536    17864    17865 1
   18537    17864    17931 1
   18538    17864    17932 1
   18539    17865    17866 1
   18540    17865    17933 1
   18541    17865    17934 1
   18542    17866    17935 1
   18543    17866    17936 1
   18544    17866    17937 1
   18545    17867    17868 1
   18546    17867    17938 1
   18547    17867    17939 1
   18548    17868    17869 1
   18549    17868    17940 1
   18550    17868    17941 1
   18551    17869    17870 1
   18552    17869    17942 1
   18553    17869    17943 1
   18554    17870    17871 1
   18555    17870    17944 1
   18556    17870    17945 1
   18557    17871    17872 1
   18558    17871    17946 1
   18559    17871    17947 1
   18560    17872    17873 1
   18561    17872    17948 1
   18562    17872    17949 1
   18563    17873    17874 1
   18564    17873    17950 1
   18565    17873    17951 1
   18566    17874    17875 1
   18567    17874    17952 1
   18568    17874    17953 1
   18569    17875    17876 1
   18570    17875    17954 1
   18571    17875    17955 1
   18572    17876    17956 1
   18573    17876    17957 1
   18574    17876    17958 1
   18575    17959    17960 1
   18576    17959    17966 1
   18577    17959    18002 1
   18578    17960    17961 1
   18579    17960    17964 1
   18580    17961    17962 1
   18581    17961    17965 1
   18582    17962    17963 1
   18583    17963    17964 1
   18584    17963    17974 1
   18585    17964    17970 1
   18586    17965    17966 1
   18587    17965    17969 1
   18588    17966    17967 1
   18589    17967    17968 1
   18590    17967    17971 1
   18591    17968    17969 1
   18592    17972    17973 1
   18593    17972    17980 1
   18594    17973    17974 1
   18595    17973    17981 1
   18596    17974    17975 1
   18597    17975    17976 1
   18598    17975    17979 1
   18599    17976    17977 1
   18600    17977    17978 1
   18601    17978    17979 1
   18602    17979    17980 1
   18603    17980    18114 1
   18604    17982    17983 1
   18605    17982    18023 1
   18606    17982    18024 1
   18607    17982    18025 1
   18608    17983    17984 1
   18609    17983    18026 1
   18610    17983    18027 1
   18611    17984    17985 1
   18612    17984    18028 1
   18613    17984    18029 1
   18614    17985    17986 1
   18615    17985    18030 1
   18616    17985    18031 1
   18617    17986    17987 1
   18618    17986    18032 1
   18619    17986    18033 1
   18620    17987    17988 1
   18621    17987    18034 1
   18622    17987    18035 1
   18623    17988    17989 1
   18624    17988    18036 1
   18625    17988    18037 1
   18626    17989    17990 1
   18627    17989    18038 1
   18628    17989    18039 1
   18629    17990    17991 1
   18630    17990    18040 1
   18631    17990    18041 1
   18632    17991    17992 1
   18633    17991    18042 1
   18634    17991    18043 1
   18635    17992    17993 1
   18636    17992    18001 1
   18637    17992    18044 1
   18638    17993    17994 1
   18639    17993    18045 1
   18640    17993    18046 1
   18641    17994    17995 1
   18642    17994    18047 1
   18643    17994    18048 1
   18644    17995    17996 1
   18645    17995    18049 1
   18646    17995    18050 1
   18647    17996    17997 1
   18648    17996    18051 1
   18649    17996    18052 1
   18650    17997    17998 1
   18651    17997    18053 1
   18652    17997    18054 1
   18653    17998    17999 1
   18654    17998    18055 1
   18655    17998    18056 1
   18656    17999    18000 1
   18657    17999    18057 1
   18658    17999    18058 1
   18659    18000    18059 1
   18660    18000    18060 1
   18661    18000    18061 1
   18662    18001    18002 1
   18663    18001    18062 1
   18664    18001    18063 1
   18665    18002    18003 1
   18666    18003    18004 1
   18667    18003    18064 1
   18668    18003    18065 1
   18669    18004    18005 1
   18670    18004    18013 1
   18671    18004    18066 1
   18672    18005    18006 1
   18673    18005    18067 1
   18674    18005    18068 1
   18675    18006    18007 1
   18676    18006    18069 1
   18677    18006    18070 1
   18678    18007    18008 1
   18679    18007    18071 1
   18680    18007    18072 1
   18681    18008    18009 1
   18682    18008    18073 1
   18683    18008    18074 1
   18684    18009    18010 1
   18685    18009    18075 1
   18686    18009    18076 1
   18687    18010    18011 1
   18688    18010    18077 1
   18689    18010    18078 1
   18690    18011    18012 1
   18691    18011    18079 1
   18692    18011    18080 1
   18693    18012    18081 1
   18694    18012    18082 1
   18695    18012    18083 1
   18696    18013    18014 1
   18697    18013    18084 1
   18698    18013    18085 1
   18699    18014    18015 1
   18700    18014    18086 1
   18701    18014    18087 1
   18702    18015    18016 1
   18703    18015    18088 1
   18704    18015    18089 1
   18705    18016    18017 1
   18706    18016    18090 1
   18707    18016    18091 1
   18708    18017    18018 1
   18709    18017    18092 1
   18710    18017    18093 1
   18711    18018    18019 1
   18712    18018    18094 1
   18713    18018    18095 1
   18714    18019    18020 1
   18715    18019    18096 1
   18716    18019    18097 1
   18717    18020    18021 1
   18718    18020    18098 1
   18719    18020    18099 1
   18720    18021    18022 1
   18721    18021    18100 1
   18722    18021    18101 1
   18723    18022    18102 1
   18724    18022    18103 1
   18725    18022    18104 1
   18726    18105    18106 1
   18727    18105    18112 1
   18728    18105    18148 1
   18729    18106    18107 1
   18730    18106    18110 1
   18731    18107    18108 1
   18732    18107    18111 1
   18733    18108    18109 1
   18734    18109    18110 1
   18735    18109    18120 1
   18736    18110    18116 1
   18737    18111    18112 1
   18738    18111    18115 1
   18739    18112    18113 1
   18740    18113    18114 1
   18741    18113    18117 1
   18742    18114    18115 1
   18743    18118    18119 1
   18744    18118    18126 1
   18745    18119    18120 1
   18746    18119    18127 1
   18747    18120    18121 1
   18748    18121    18122 1
   18749    18121    18125 1
   18750    18122    18123 1
   18751    18123    18124 1
   18752    18124    18125 1
   18753    18125    18126 1
   18754    18126    18260 1
   18755    18128    18129 1
   18756    18128    18169 1
   18757    18128    18170 1
   18758    18128    18171 1
   18759    18129    18130 1
   18760    18129    18172 1
   18761    18129    18173 1
   18762    18130    18131 1
   18763    18130    18174 1
   18764    18130    18175 1
   18765    18131    18132 1
   18766    18131    18176 1
   18767    18131    18177 1
   18768    18132    18133 1
   18769    18132    18178 1
   18770    18132    18179 1
   18771    18133    18134 1
   18772    18133    18180 1
   18773    18133    18181 1
   18774    18134    18135 1
   18775    18134    18182 1
   18776    18134    18183 1
   18777    18135    18136 1
   18778    18135    18184 1
   18779    18135    18185 1
   18780    18136    18137 1
   18781    18136    18186 1
   18782    18136    18187 1
   18783    18137    18138 1
   18784    18137    18188 1
   18785    18137    18189 1
   18786    18138    18139 1
   18787    18138    18147 1
   18788    18138    18190 1
   18789    18139    18140 1
   18790    18139    18191 1
   18791    18139    18192 1
   18792    18140    18141 1
   18793    18140    18193 1
   18794    18140    18194 1
   18795    18141    18142 1
   18796    18141    18195 1
   18797    18141    18196 1
   18798    18142    18143 1
   18799    18142    18197 1
   18800    18142    18198 1
   18801    18143    18144 1
   18802    18143    18199 1
   18803    18143    18200 1
   18804    18144    18145 1
   18805    18144    18201 1
   18806    18144    18202 1
   18807    18145    18146 1
   18808    18145    18203 1
   18809    18145    18204 1
   18810    18146    18205 1
   18811    18146    18206 1
   18812    18146    18207 1
   18813    18147    18148 1
   18814    18147    18208 1
   18815    18147    18209 1
   18816    18148    18149 1
   18817    18149    18150 1
   18818    18149    18210 1
   18819    18149    18211 1
   18820    18150    18151 1
   18821    18150    18159 1
   18822    18150    18212 1
   18823    18151    18152 1
   18824    18151    18213 1
   18825    18151    18214 1
   18826    18152    18153 1
   18827    18152    18215 1
   18828    18152    18216 1
   18829    18153    18154 1
   18830    18153    18217 1
   18831    18153    18218 1
   18832    18154    18155 1
   18833    18154    18219 1
   18834    18154    18220 1
   18835    18155    18156 1
   18836    18155    18221 1
   18837    18155    18222 1
   18838    18156    18157 1
   18839    18156    18223 1
   18840    18156    18224 1
   18841    18157    18158 1
   18842    18157    18225 1
   18843    18157    18226 1
   18844    18158    18227 1
   18845    18158    18228 1
   18846    18158    18229 1
   18847    18159    18160 1
   18848    18159    18230 1
   18849    18159    18231 1
   18850    18160    18161 1
   18851    18160    18232 1
   18852    18160    18233 1
   18853    18161    18162 1
   18854    18161    18234 1
   18855    18161    18235 1
   18856    18162    18163 1
   18857    18162    18236 1
   18858    18162    18237 1
   18859    18163    18164 1
   18860    18163    18238 1
   18861    18163    18239 1
   18862    18164    18165 1
   18863    18164    18240 1
   18864    18164    18241 1
   18865    18165    18166 1
   18866    18165    18242 1
   18867    18165    18243 1
   18868    18166    18167 1
   18869    18166    18244 1
   18870    18166    18245 1
   18871    18167    18168 1
   18872    18167    18246 1
   18873    18167    18247 1
   18874    18168    18248 1
   18875    18168    18249 1
   18876    18168    18250 1
   18877    18251    18252 1
   18878    18251    18258 1
   18879    18251    18294 1
   18880    18252    18253 1
   18881    18252    18256 1
   18882    18253    18254 1
   18883    18253    18257 1
   18884    18254    18255 1
   18885    18255    18256 1
   18886    18255    18266 1
   18887    18256    18262 1
   18888    18257    18258 1
   18889    18257    18261 1
   18890    18258    18259 1
   18891    18259    18260 1
   18892    18259    18263 1
   18893    18260    18261 1
   18894    18264    18265 1
   18895    18264    18272 1
   18896    18265    18266 1
   18897    18265    18273 1
   18898    18266    18267 1
   18899    18267    18268 1
   18900    18267    18271 1
   18901    18268    18269 1
   18902    18269    18270 1
   18903    18270    18271 1
   18904    18271    18272 1
   18905    18272    18406 1
   18906    18274    18275 1
   18907    18274    18315 1
   18908    18274    18316 1
   18909    18274    18317 1
   18910    18275    18276 1
   18911    18275    18318 1
   18912    18275    18319 1
   18913    18276    18277 1
   18914    18276    18320 1
   18915    18276    18321 1
   18916    18277    18278 1
   18917    18277    18322 1
   18918    18277    18323 1
   18919    18278    18279 1
   18920    18278    18324 1
   18921    18278    18325 1
   18922    18279    18280 1
   18923    18279    18326 1
   18924    18279    18327 1
   18925    18280    18281 1
   18926    18280    18328 1
   18927    18280    18329 1
   18928    18281    18282 1
   18929    18281    18330 1
   18930    18281    18331 1
   18931    18282    18283 1
   18932    18282    18332 1
   18933    18282    18333 1
   18934    18283    18284 1
   18935    18283    18334 1
   18936    18283    18335 1
   18937    18284    18285 1
   18938    18284    18293 1
   18939    18284    18336 1
   18940    18285    18286 1
   18941    18285    18337 1
   18942    18285    18338 1
   18943    18286    18287 1
   18944    18286    18339 1
   18945    18286    18340 1
   18946    18287    18288 1
   18947    18287    18341 1
   18948    18287    18342 1
   18949    18288    18289 1
   18950    18288    18343 1
   18951    18288    18344 1
   18952    18289    18290 1
   18953    18289    18345 1
   18954    18289    18346 1
   18955    18290    18291 1
   18956    18290    18347 1
   18957    18290    18348 1
   18958    18291    18292 1
   18959    18291    18349 1
   18960    18291    18350 1
   18961    18292    18351 1
   18962    18292    18352 1
   18963    18292    18353 1
   18964    18293    18294 1
   18965    18293    18354 1
   18966    18293    18355 1
   18967    18294    18295 1
   18968    18295    18296 1
   18969    18295    18356 1
   18970    18295    18357 1
   18971    18296    18297 1
   18972    18296    18305 1
   18973    18296    18358 1
   18974    18297    18298 1
   18975    18297    18359 1
   18976    18297    18360 1
   18977    18298    18299 1
   18978    18298    18361 1
   18979    18298    18362 1
   18980    18299    18300 1
   18981    18299    18363 1
   18982    18299    18364 1
   18983    18300    18301 1
   18984    18300    18365 1
   18985    18300    18366 1
   18986    18301    18302 1
   18987    18301    18367 1
   18988    18301    18368 1
   18989    18302    18303 1
   18990    18302    18369 1
   18991    18302    18370 1
   18992    18303    18304 1
   18993    18303    18371 1
   18994    18303    18372 1
   18995    18304    18373 1
   18996    18304    18374 1
   18997    18304    18375 1
   18998    18305    18306 1
   18999    18305    18376 1
   19000    18305    18377 1
   19001    18306    18307 1
   19002    18306    18378 1
   19003    18306    18379 1
   19004    18307    18308 1
   19005    18307    18380 1
   19006    18307    18381 1
   19007    18308    18309 1
   19008    18308    18382 1
   19009    18308    18383 1
   19010    18309    18310 1
   19011    18309    18384 1
   19012    18309    18385 1
   19013    18310    18311 1
   19014    18310    18386 1
   19015    18310    18387 1
   19016    18311    18312 1
   19017    18311    18388 1
   19018    18311    18389 1
   19019    18312    18313 1
   19020    18312    18390 1
   19021    18312    18391 1
   19022    18313    18314 1
   19023    18313    18392 1
   19024    18313    18393 1
   19025    18314    18394 1
   19026    18314    18395 1
   19027    18314    18396 1
   19028    18397    18398 1
   19029    18397    18404 1
   19030    18397    18440 1
   19031    18398    18399 1
   19032    18398    18402 1
   19033    18399    18400 1
   19034    18399    18403 1
   19035    18400    18401 1
   19036    18401    18402 1
   19037    18401    18412 1
   19038    18402    18408 1
   19039    18403    18404 1
   19040    18403    18407 1
   19041    18404    18405 1
   19042    18405    18406 1
   19043    18405    18409 1
   19044    18406    18407 1
   19045    18410    18411 1
   19046    18410    18418 1
   19047    18411    18412 1
   19048    18411    18419 1
   19049    18412    18413 1
   19050    18413    18414 1
   19051    18413    18417 1
   19052    18414    18415 1
   19053    18415    18416 1
   19054    18416    18417 1
   19055    18417    18418 1
   19056    18418    18552 1
   19057    18420    18421 1
   19058    18420    18461 1
   19059    18420    18462 1
   19060    18420    18463 1
   19061    18421    18422 1
   19062    18421    18464 1
   19063    18421    18465 1
   19064    18422    18423 1
   19065    18422    18466 1
   19066    18422    18467 1
   19067    18423    18424 1
   19068    18423    18468 1
   19069    18423    18469 1
   19070    18424    18425 1
   19071    18424    18470 1
   19072    18424    18471 1
   19073    18425    18426 1
   19074    18425    18472 1
   19075    18425    18473 1
   19076    18426    18427 1
   19077    18426    18474 1
   19078    18426    18475 1
   19079    18427    18428 1
   19080    18427    18476 1
   19081    18427    18477 1
   19082    18428    18429 1
   19083    18428    18478 1
   19084    18428    18479 1
   19085    18429    18430 1
   19086    18429    18480 1
   19087    18429    18481 1
   19088    18430    18431 1
   19089    18430    18439 1
   19090    18430    18482 1
   19091    18431    18432 1
   19092    18431    18483 1
   19093    18431    18484 1
   19094    18432    18433 1
   19095    18432    18485 1
   19096    18432    18486 1
   19097    18433    18434 1
   19098    18433    18487 1
   19099    18433    18488 1
   19100    18434    18435 1
   19101    18434    18489 1
   19102    18434    18490 1
   19103    18435    18436 1
   19104    18435    18491 1
   19105    18435    18492 1
   19106    18436    18437 1
   19107    18436    18493 1
   19108    18436    18494 1
   19109    18437    18438 1
   19110    18437    18495 1
   19111    18437    18496 1
   19112    18438    18497 1
   19113    18438    18498 1
   19114    18438    18499 1
   19115    18439    18440 1
   19116    18439    18500 1
   19117    18439    18501 1
   19118    18440    18441 1
   19119    18441    18442 1
   19120    18441    18502 1
   19121    18441    18503 1
   19122    18442    18443 1
   19123    18442    18451 1
   19124    18442    18504 1
   19125    18443    18444 1
   19126    18443    18505 1
   19127    18443    18506 1
   19128    18444    18445 1
   19129    18444    18507 1
   19130    18444    18508 1
   19131    18445    18446 1
   19132    18445    18509 1
   19133    18445    18510 1
   19134    18446    18447 1
   19135    18446    18511 1
   19136    18446    18512 1
   19137    18447    18448 1
   19138    18447    18513 1
   19139    18447    18514 1
   19140    18448    18449 1
   19141    18448    18515 1
   19142    18448    18516 1
   19143    18449    18450 1
   19144    18449    18517 1
   19145    18449    18518 1
   19146    18450    18519 1
   19147    18450    18520 1
   19148    18450    18521 1
   19149    18451    18452 1
   19150    18451    18522 1
   19151    18451    18523 1
   19152    18452    18453 1
   19153    18452    18524 1
   19154    18452    18525 1
   19155    18453    18454 1
   19156    18453    18526 1
   19157    18453    18527 1
   19158    18454    18455 1
   19159    18454    18528 1
   19160    18454    18529 1
   19161    18455    18456 1
   19162    18455    18530 1
   19163    18455    18531 1
   19164    18456    18457 1
   19165    18456    18532 1
   19166    18456    18533 1
   19167    18457    18458 1
   19168    18457    18534 1
   19169    18457    18535 1
   19170    18458    18459 1
   19171    18458    18536 1
   19172    18458    18537 1
   19173    18459    18460 1
   19174    18459    18538 1
   19175    18459    18539 1
   19176    18460    18540 1
   19177    18460    18541 1
   19178    18460    18542 1
   19179    18543    18544 1
   19180    18543    18550 1
   19181    18543    18586 1
   19182    18544    18545 1
   19183    18544    18548 1
   19184    18545    18546 1
   19185    18545    18549 1
   19186    18546    18547 1
   19187    18547    18548 1
   19188    18547    18558 1
   19189    18548    18554 1
   19190    18549    18550 1
   19191    18549    18553 1
   19192    18550    18551 1
   19193    18551    18552 1
   19194    18551    18555 1
   19195    18552    18553 1
   19196    18556    18557 1
   19197    18556    18564 1
   19198    18557    18558 1
   19199    18557    18565 1
   19200    18558    18559 1
   19201    18559    18560 1
   19202    18559    18563 1
   19203    18560    18561 1
   19204    18561    18562 1
   19205    18562    18563 1
   19206    18563    18564 1
   19207    18564    18698 1
   19208    18566    18567 1
   19209    18566    18607 1
   19210    18566    18608 1
   19211    18566    18609 1
   19212    18567    18568 1
   19213    18567    18610 1
   19214    18567    18611 1
   19215    18568    18569 1
   19216    18568    18612 1
   19217    18568    18613 1
   19218    18569    18570 1
   19219    18569    18614 1
   19220    18569    18615 1
   19221    18570    18571 1
   19222    18570    18616 1
   19223    18570    18617 1
   19224    18571    18572 1
   19225    18571    18618 1
   19226    18571    18619 1
   19227    18572    18573 1
   19228    18572    18620 1
   19229    18572    18621 1
   19230    18573    18574 1
   19231    18573    18622 1
   19232    18573    18623 1
   19233    18574    18575 1
   19234    18574    18624 1
   19235    18574    18625 1
   19236    18575    18576 1
   19237    18575    18626 1
   19238    18575    18627 1
   19239    18576    18577 1
   19240    18576    18585 1
   19241    18576    18628 1
   19242    18577    18578 1
   19243    18577    18629 1
   19244    18577    18630 1
   19245    18578    18579 1
   19246    18578    18631 1
   19247    18578    18632 1
   19248    18579    18580 1
   19249    18579    18633 1
   19250    18579    18634 1
   19251    18580    18581 1
   19252    18580    18635 1
   19253    18580    18636 1
   19254    18581    18582 1
   19255    18581    18637 1
   19256    18581    18638 1
   19257    18582    18583 1
   19258    18582    18639 1
   19259    18582    18640 1
   19260    18583    18584 1
   19261    18583    18641 1
   19262    18583    18642 1
   19263    18584    18643 1
   19264    18584    18644 1
   19265    18584    18645 1
   19266    18585    18586 1
   19267    18585    18646 1
   19268    18585    18647 1
   19269    18586    18587 1
   19270    18587    18588 1
   19271    18587    18648 1
   19272    18587    18649 1
   19273    18588    18589 1
   19274    18588    18597 1
   19275    18588    18650 1
   19276    18589    18590 1
   19277    18589    18651 1
   19278    18589    18652 1
   19279    18590    18591 1
   19280    18590    18653 1
   19281    18590    18654 1
   19282    18591    18592 1
   19283    18591    18655 1
   19284    18591    18656 1
   19285    18592    18593 1
   19286    18592    18657 1
   19287    18592    18658 1
   19288    18593    18594 1
   19289    18593    18659 1
   19290    18593    18660 1
   19291    18594    18595 1
   19292    18594    18661 1
   19293    18594    18662 1
   19294    18595    18596 1
   19295    18595    18663 1
   19296    18595    18664 1
   19297    18596    18665 1
   19298    18596    18666 1
   19299    18596    18667 1
   19300    18597    18598 1
   19301    18597    18668 1
   19302    18597    18669 1
   19303    18598    18599 1
   19304    18598    18670 1
   19305    18598    18671 1
   19306    18599    18600 1
   19307    18599    18672 1
   19308    18599    18673 1
   19309    18600    18601 1
   19310    18600    18674 1
   19311    18600    18675 1
   19312    18601    18602 1
   19313    18601    18676 1
   19314    18601    18677 1
   19315    18602    18603 1
   19316    18602    18678 1
   19317    18602    18679 1
   19318    18603    18604 1
   19319    18603    18680 1
   19320    18603    18681 1
   19321    18604    18605 1
   19322    18604    18682 1
   19323    18604    18683 1
   19324    18605    18606 1
   19325    18605    18684 1
   19326    18605    18685 1
   19327    18606    18686 1
   19328    18606    18687 1
   19329    18606    18688 1
   19330    18689    18690 1
   19331    18689    18696 1
   19332    18689    18732 1
   19333    18690    18691 1
   19334    18690    18694 1
   19335    18691    18692 1
   19336    18691    18695 1
   19337    18692    18693 1
   19338    18693    18694 1
   19339    18693    18704 1
   19340    18694    18700 1
   19341    18695    18696 1
   19342    18695    18699 1
   19343    18696    18697 1
   19344    18697    18698 1
   19345    18697    18701 1
   19346    18698    18699 1
   19347    18702    18703 1
   19348    18702    18710 1
   19349    18703    18704 1
   19350    18703    18711 1
   19351    18704    18705 1
   19352    18705    18706 1
   19353    18705    18709 1
   19354    18706    18707 1
   19355    18707    18708 1
   19356    18708    18709 1
   19357    18709    18710 1
   19358    18710    18844 1
   19359    18712    18713 1
   19360    18712    18753 1
   19361    18712    18754 1
   19362    18712    18755 1
   19363    18713    18714 1
   19364    18713    18756 1
   19365    18713    18757 1
   19366    18714    18715 1
   19367    18714    18758 1
   19368    18714    18759 1
   19369    18715    18716 1
   19370    18715    18760 1
   19371    18715    18761 1
   19372    18716    18717 1
   19373    18716    18762 1
   19374    18716    18763 1
   19375    18717    18718 1
   19376    18717    18764 1
   19377    18717    18765 1
   19378    18718    18719 1
   19379    18718    18766 1
   19380    18718    18767 1
   19381    18719    18720 1
   19382    18719    18768 1
   19383    18719    18769 1
   19384    18720    18721 1
   19385    18720    18770 1
   19386    18720    18771 1
   19387    18721    18722 1
   19388    18721    18772 1
   19389    18721    18773 1
   19390    18722    18723 1
   19391    18722    18731 1
   19392    18722    18774 1
   19393    18723    18724 1
   19394    18723    18775 1
   19395    18723    18776 1
   19396    18724    18725 1
   19397    18724    18777 1
   19398    18724    18778 1
   19399    18725    18726 1
   19400    18725    18779 1
   19401    18725    18780 1
   19402    18726    18727 1
   19403    18726    18781 1
   19404    18726    18782 1
   19405    18727    18728 1
   19406    18727    18783 1
   19407    18727    18784 1
   19408    18728    18729 1
   19409    18728    18785 1
   19410    18728    18786 1
   19411    18729    18730 1
   19412    18729    18787 1
   19413    18729    18788 1
   19414    18730    18789 1
   19415    18730    18790 1
   19416    18730    18791 1
   19417    18731    18732 1
   19418    18731    18792 1
   19419    18731    18793 1
   19420    18732    18733 1
   19421    18733    18734 1
   19422    18733    18794 1
   19423    18733    18795 1
   19424    18734    18735 1
   19425    18734    18743 1
   19426    18734    18796 1
   19427    18735    18736 1
   19428    18735    18797 1
   19429    18735    18798 1
   19430    18736    18737 1
   19431    18736    18799 1
   19432    18736    18800 1
   19433    18737    18738 1
   19434    18737    18801 1
   19435    18737    18802 1
   19436    18738    18739 1
   19437    18738    18803 1
   19438    18738    18804 1
   19439    18739    18740 1
   19440    18739    18805 1
   19441    18739    18806 1
   19442    18740    18741 1
   19443    18740    18807 1
   19444    18740    18808 1
   19445    18741    18742 1
   19446    18741    18809 1
   19447    18741    18810 1
   19448    18742    18811 1
   19449    18742    18812 1
   19450    18742    18813 1
   19451    18743    18744 1
   19452    18743    18814 1
   19453    18743    18815 1
   19454    18744    18745 1
   19455    18744    18816 1
   19456    18744    18817 1
   19457    18745    18746 1
   19458    18745    18818 1
   19459    18745    18819 1
   19460    18746    18747 1
   19461    18746    18820 1
   19462    18746    18821 1
   19463    18747    18748 1
   19464    18747    18822 1
   19465    18747    18823 1
   19466    18748    18749 1
   19467    18748    18824 1
   19468    18748    18825 1
   19469    18749    18750 1
   19470    18749    18826 1
   19471    18749    18827 1
   19472    18750    18751 1
   19473    18750    18828 1
   19474    18750    18829 1
   19475    18751    18752 1
   19476    18751    18830 1
   19477    18751    18831 1
   19478    18752    18832 1
   19479    18752    18833 1
   19480    18752    18834 1
   19481    18835    18836 1
   19482    18835    18842 1
   19483    18835    18878 1
   19484    18836    18837 1
   19485    18836    18840 1
   19486    18837    18838 1
   19487    18837    18841 1
   19488    18838    18839 1
   19489    18839    18840 1
   19490    18839    18850 1
   19491    18840    18846 1
   19492    18841    18842 1
   19493    18841    18845 1
   19494    18842    18843 1
   19495    18843    18844 1
   19496    18843    18847 1
   19497    18844    18845 1
   19498    18848    18849 1
   19499    18848    18856 1
   19500    18849    18850 1
   19501    18849    18857 1
   19502    18850    18851 1
   19503    18851    18852 1
   19504    18851    18855 1
   19505    18852    18853 1
   19506    18853    18854 1
   19507    18854    18855 1
   19508    18855    18856 1
   19509    18856    18990 1
   19510    18858    18859 1
   19511    18858    18899 1
   19512    18858    18900 1
   19513    18858    18901 1
   19514    18859    18860 1
   19515    18859    18902 1
   19516    18859    18903 1
   19517    18860    18861 1
   19518    18860    18904 1
   19519    18860    18905 1
   19520    18861    18862 1
   19521    18861    18906 1
   19522    18861    18907 1
   19523    18862    18863 1
   19524    18862    18908 1
   19525    18862    18909 1
   19526    18863    18864 1
   19527    18863    18910 1
   19528    18863    18911 1
   19529    18864    18865 1
   19530    18864    18912 1
   19531    18864    18913 1
   19532    18865    18866 1
   19533    18865    18914 1
   19534    18865    18915 1
   19535    18866    18867 1
   19536    18866    18916 1
   19537    18866    18917 1
   19538    18867    18868 1
   19539    18867    18918 1
   19540    18867    18919 1
   19541    18868    18869 1
   19542    18868    18877 1
   19543    18868    18920 1
   19544    18869    18870 1
   19545    18869    18921 1
   19546    18869    18922 1
   19547    18870    18871 1
   19548    18870    18923 1
   19549    18870    18924 1
   19550    18871    18872 1
   19551    18871    18925 1
   19552    18871    18926 1
   19553    18872    18873 1
   19554    18872    18927 1
   19555    18872    18928 1
   19556    18873    18874 1
   19557    18873    18929 1
   19558    18873    18930 1
   19559    18874    18875 1
   19560    18874    18931 1
   19561    18874    18932 1
   19562    18875    18876 1
   19563    18875    18933 1
   19564    18875    18934 1
   19565    18876    18935 1
   19566    18876    18936 1
   19567    18876    18937 1
   19568    18877    18878 1
   19569    18877    18938 1
   19570    18877    18939 1
   19571    18878    18879 1
   19572    18879    18880 1
   19573    18879    18940 1
   19574    18879    18941 1
   19575    18880    18881 1
   19576    18880    18889 1
   19577    18880    18942 1
   19578    18881    18882 1
   19579    18881    18943 1
   19580    18881    18944 1
   19581    18882    18883 1
   19582    18882    18945 1
   19583    18882    18946 1
   19584    18883    18884 1
   19585    18883    18947 1
   19586    18883    18948 1
   19587    18884    18885 1
   19588    18884    18949 1
   19589    18884    18950 1
   19590    18885    18886 1
   19591    18885    18951 1
   19592    18885    18952 1
   19593    18886    18887 1
   19594    18886    18953 1
   19595    18886    18954 1
   19596    18887    18888 1
   19597    18887    18955 1
   19598    18887    18956 1
   19599    18888    18957 1
   19600    18888    18958 1
   19601    18888    18959 1
   19602    18889    18890 1
   19603    18889    18960 1
   19604    18889    18961 1
   19605    18890    18891 1
   19606    18890    18962 1
   19607    18890    18963 1
   19608    18891    18892 1
   19609    18891    18964 1
   19610    18891    18965 1
   19611    18892    18893 1
   19612    18892    18966 1
   19613    18892    18967 1
   19614    18893    18894 1
   19615    18893    18968 1
   19616    18893    18969 1
   19617    18894    18895 1
   19618    18894    18970 1
   19619    18894    18971 1
   19620    18895    18896 1
   19621    18895    18972 1
   19622    18895    18973 1
   19623    18896    18897 1
   19624    18896    18974 1
   19625    18896    18975 1
   19626    18897    18898 1
   19627    18897    18976 1
   19628    18897    18977 1
   19629    18898    18978 1
   19630    18898    18979 1
   19631    18898    18980 1
   19632    18981    18982 1
   19633    18981    18988 1
   19634    18981    19024 1
   19635    18982    18983 1
   19636    18982    18986 1
   19637    18983    18984 1
   19638    18983    18987 1
   19639    18984    18985 1
   19640    18985    18986 1
   19641    18985    18996 1
   19642    18986    18992 1
   19643    18987    18988 1
   19644    18987    18991 1
   19645    18988    18989 1
   19646    18989    18990 1
   19647    18989    18993 1
   19648    18990    18991 1
   19649    18994    18995 1
   19650    18994    19002 1
   19651    18995    18996 1
   19652    18995    19003 1
   19653    18996    18997 1
   19654    18997    18998 1
   19655    18997    19001 1
   19656    18998    18999 1
   19657    18999    19000 1
   19658    19000    19001 1
   19659    19001    19002 1
   19660    19002    19136 1
   19661    19004    19005 1
   19662    19004    19045 1
   19663    19004    19046 1
   19664    19004    19047 1
   19665    19005    19006 1
   19666    19005    19048 1
   19667    19005    19049 1
   19668    19006    19007 1
   19669    19006    19050 1
   19670    19006    19051 1
   19671    19007    19008 1
   19672    19007    19052 1
   19673    19007    19053 1
   19674    19008    19009 1
   19675    19008    19054 1
   19676    19008    19055 1
   19677    19009    19010 1
   19678    19009    19056 1
   19679    19009    19057 1
   19680    19010    19011 1
   19681    19010    19058 1
   19682    19010    19059 1
   19683    19011    19012 1
   19684    19011    19060 1
   19685    19011    19061 1
   19686    19012    19013 1
   19687    19012    19062 1
   19688    19012    19063 1
   19689    19013    19014 1
   19690    19013    19064 1
   19691    19013    19065 1
   19692    19014    19015 1
   19693    19014    19023 1
   19694    19014    19066 1
   19695    19015    19016 1
   19696    19015    19067 1
   19697    19015    19068 1
   19698    19016    19017 1
   19699    19016    19069 1
   19700    19016    19070 1
   19701    19017    19018 1
   19702    19017    19071 1
   19703    19017    19072 1
   19704    19018    19019 1
   19705    19018    19073 1
   19706    19018    19074 1
   19707    19019    19020 1
   19708    19019    19075 1
   19709    19019    19076 1
   19710    19020    19021 1
   19711    19020    19077 1
   19712    19020    19078 1
   19713    19021    19022 1
   19714    19021    19079 1
   19715    19021    19080 1
   19716    19022    19081 1
   19717    19022    19082 1
   19718    19022    19083 1
   19719    19023    19024 1
   19720    19023    19084 1
   19721    19023    19085 1
   19722    19024    19025 1
   19723    19025    19026 1
   19724    19025    19086 1
   19725    19025    19087 1
   19726    19026    19027 1
   19727    19026    19035 1
   19728    19026    19088 1
   19729    19027    19028 1
   19730    19027    19089 1
   19731    19027    19090 1
   19732    19028    19029 1
   19733    19028    19091 1
   19734    19028    19092 1
   19735    19029    19030 1
   19736    19029    19093 1
   19737    19029    19094 1
   19738    19030    19031 1
   19739    19030    19095 1
   19740    19030    19096 1
   19741    19031    19032 1
   19742    19031    19097 1
   19743    19031    19098 1
   19744    19032    19033 1
   19745    19032    19099 1
   19746    19032    19100 1
   19747    19033    19034 1
   19748    19033    19101 1
   19749    19033    19102 1
   19750    19034    19103 1
   19751    19034    19104 1
   19752    19034    19105 1
   19753    19035    19036 1
   19754    19035    19106 1
   19755    19035    19107 1
   19756    19036    19037 1
   19757    19036    19108 1
   19758    19036    19109 1
   19759    19037    19038 1
   19760    19037    19110 1
   19761    19037    19111 1
   19762    19038    19039 1
   19763    19038    19112 1
   19764    19038    19113 1
   19765    19039    19040 1
   19766    19039    19114 1
   19767    19039    19115 1
   19768    19040    19041 1
   19769    19040    19116 1
   19770    19040    19117 1
   19771    19041    19042 1
   19772    19041    19118 1
   19773    19041    19119 1
   19774    19042    19043 1
   19775    19042    19120 1
   19776    19042    19121 1
   19777    19043    19044 1
   19778    19043    19122 1
   19779    19043    19123 1
   19780    19044    19124 1
   19781    19044    19125 1
   19782    19044    19126 1
   19783    19127    19128 1
   19784    19127    19134 1
   19785    19127    19170 1
   19786    19128    19129 1
   19787    19128    19132 1
   19788    19129    19130 1
   19789    19129    19133 1
   19790    19130    19131 1
   19791    19131    19132 1
   19792    19131    19142 1
   19793    19132    19138 1
   19794    19133    19134 1
   19795    19133    19137 1
   19796    19134    19135 1
   19797    19135    19136 1
   19798    19135    19139 1
   19799    19136    19137 1
   19800    19140    19141 1
   19801    19140    19148 1
   19802    19141    19142 1
   19803    19141    19149 1
   19804    19142    19143 1
   19805    19143    19144 1
   19806    19143    19147 1
   19807    19144    19145 1
   19808    19145    19146 1
   19809    19146    19147 1
   19810    19147    19148 1
   19811    19148    19282 1
   19812    19150    19151 1
   19813    19150    19191 1
   19814    19150    19192 1
   19815    19150    19193 1
   19816    19151    19152 1
   19817    19151    19194 1
   19818    19151    19195 1
   19819    19152    19153 1
   19820    19152    19196 1
   19821    19152    19197 1
   19822    19153    19154 1
   19823    19153    19198 1
   19824    19153    19199 1
   19825    19154    19155 1
   19826    19154    19200 1
   19827    19154    19201 1
   19828    19155    19156 1
   19829    19155    19202 1
   19830    19155    19203 1
   19831    19156    19157 1
   19832    19156    19204 1
   19833    19156    19205 1
   19834    19157    19158 1
   19835    19157    19206 1
   19836    19157    19207 1
   19837    19158    19159 1
   19838    19158    19208 1
   19839    19158    19209 1
   19840    19159    19160 1
   19841    19159    19210 1
   19842    19159    19211 1
   19843    19160    19161 1
   19844    19160    19169 1
   19845    19160    19212 1
   19846    19161    19162 1
   19847    19161    19213 1
   19848    19161    19214 1
   19849    19162    19163 1
   19850    19162    19215 1
   19851    19162    19216 1
   19852    19163    19164 1
   19853    19163    19217 1
   19854    19163    19218 1
   19855    19164    19165 1
   19856    19164    19219 1
   19857    19164    19220 1
   19858    19165    19166 1
   19859    19165    19221 1
   19860    19165    19222 1
   19861    19166    19167 1
   19862    19166    19223 1
   19863    19166    19224 1
   19864    19167    19168 1
   19865    19167    19225 1
   19866    19167    19226 1
   19867    19168    19227 1
   19868    19168    19228 1
   19869    19168    19229 1
   19870    19169    19170 1
   19871    19169    19230 1
   19872    19169    19231 1
   19873    19170    19171 1
   19874    19171    19172 1
   19875    19171    19232 1
   19876    19171    19233 1
   19877    19172    19173 1
   19878    19172    19181 1
   19879    19172    19234 1
   19880    19173    19174 1
   19881    19173    19235 1
   19882    19173    19236 1
   19883    19174    19175 1
   19884    19174    19237 1
   19885    19174    19238 1
   19886    19175    19176 1
   19887    19175    19239 1
   19888    19175    19240 1
   19889    19176    19177 1
   19890    19176    19241 1
   19891    19176    19242 1
   19892    19177    19178 1
   19893    19177    19243 1
   19894    19177    19244 1
   19895    19178    19179 1
   19896    19178    19245 1
   19897    19178    19246 1
   19898    19179    19180 1
   19899    19179    19247 1
   19900    19179    19248 1
   19901    19180    19249 1
   19902    19180    19250 1
   19903    19180    19251 1
   19904    19181    19182 1
   19905    19181    19252 1
   19906    19181    19253 1
   19907    19182    19183 1
   19908    19182    19254 1
   19909    19182    19255 1
   19910    19183    19184 1
   19911    19183    19256 1
   19912    19183    19257 1
   19913    19184    19185 1
   19914    19184    19258 1
   19915    19184    19259 1
   19916    19185    19186 1
   19917    19185    19260 1
   19918    19185    19261 1
   19919    19186    19187 1
   19920    19186    19262 1
   19921    19186    19263 1
   19922    19187    19188 1
   19923    19187    19264 1
   19924    19187    19265 1
   19925    19188    19189 1
   19926    19188    19266 1
   19927    19188    19267 1
   19928    19189    19190 1
   19929    19189    19268 1
   19930    19189    19269 1
   19931    19190    19270 1
   19932    19190    19271 1
   19933    19190    19272 1
   19934    19273    19274 1
   19935    19273    19280 1
   19936    19273    19316 1
   19937    19274    19275 1
   19938    19274    19278 1
   19939    19275    19276 1
   19940    19275    19279 1
   19941    19276    19277 1
   19942    19277    19278 1
   19943    19277    19288 1
   19944    19278    19284 1
   19945    19279    19280 1
   19946    19279    19283 1
   19947    19280    19281 1
   19948    19281    19282 1
   19949    19281    19285 1
   19950    19282    19283 1
   19951    19286    19287 1
   19952    19286    19294 1
   19953    19287    19288 1
   19954    19287    19295 1
   19955    19288    19289 1
   19956    19289    19290 1
   19957    19289    19293 1
   19958    19290    19291 1
   19959    19291    19292 1
   19960    19292    19293 1
   19961    19293    19294 1
   19962    19294    19428 1
   19963    19296    19297 1
   19964    19296    19337 1
   19965    19296    19338 1
   19966    19296    19339 1
   19967    19297    19298 1
   19968    19297    19340 1
   19969    19297    19341 1
   19970    19298    19299 1
   19971    19298    19342 1
   19972    19298    19343 1
   19973    19299    19300 1
   19974    19299    19344 1
   19975    19299    19345 1
   19976    19300    19301 1
   19977    19300    19346 1
   19978    19300    19347 1
   19979    19301    19302 1
   19980    19301    19348 1
   19981    19301    19349 1
   19982    19302    19303 1
   19983    19302    19350 1
   19984    19302    19351 1
   19985    19303    19304 1
   19986    19303    19352 1
   19987    19303    19353 1
   19988    19304    19305 1
   19989    19304    19354 1
   19990    19304    19355 1
   19991    19305    19306 1
   19992    19305    19356 1
   19993    19305    19357 1
   19994    19306    19307 1
   19995    19306    19315 1
   19996    19306    19358 1
   19997    19307    19308 1
   19998    19307    19359 1
   19999    19307    19360 1
   20000    19308    19309 1
   20001    19308    19361 1
   20002    19308    19362 1
   20003    19309    19310 1
   20004    19309    19363 1
   20005    19309    19364 1
   20006    19310    19311 1
   20007    19310    19365 1
   20008    19310    19366 1
   20009    19311    19312 1
   20010    19311    19367 1
   20011    19311    19368 1
   20012    19312    19313 1
   20013    19312    19369 1
   20014    19312    19370 1
   20015    19313    19314 1
   20016    19313    19371 1
   20017    19313    19372 1
   20018    19314    19373 1
   20019    19314    19374 1
   20020    19314    19375 1
   20021    19315    19316 1
   20022    19315    19376 1
   20023    19315    19377 1
   20024    19316    19317 1
   20025    19317    19318 1
   20026    19317    19378 1
   20027    19317    19379 1
   20028    19318    19319 1
   20029    19318    19327 1
   20030    19318    19380 1
   20031    19319    19320 1
   20032    19319    19381 1
   20033    19319    19382 1
   20034    19320    19321 1
   20035    19320    19383 1
   20036    19320    19384 1
   20037    19321    19322 1
   20038    19321    19385 1
   20039    19321    19386 1
   20040    19322    19323 1
   20041    19322    19387 1
   20042    19322    19388 1
   20043    19323    19324 1
   20044    19323    19389 1
   20045    19323    19390 1
   20046    19324    19325 1
   20047    19324    19391 1
   20048    19324    19392 1
   20049    19325    19326 1
   20050    19325    19393 1
   20051    19325    19394 1
   20052    19326    19395 1
   20053    19326    19396 1
   20054    19326    19397 1
   20055    19327    19328 1
   20056    19327    19398 1
   20057    19327    19399 1
   20058    19328    19329 1
   20059    19328    19400 1
   20060    19328    19401 1
   20061    19329    19330 1
   20062    19329    19402 1
   20063    19329    19403 1
   20064    19330    19331 1
   20065    19330    19404 1
   20066    19330    19405 1
   20067    19331    19332 1
   20068    19331    19406 1
   20069    19331    19407 1
   20070    19332    19333 1
   20071    19332    19408 1
   20072    19332    19409 1
   20073    19333    19334 1
   20074    19333    19410 1
   20075    19333    19411 1
   20076    19334    19335 1
   20077    19334    19412 1
   20078    19334    19413 1
   20079    19335    19336 1
   20080    19335    19414 1
   20081    19335    19415 1
   20082    19336    19416 1
   20083    19336    19417 1
   20084    19336    19418 1
   20085    19419    19420 1
   20086    19419    19426 1
   20087    19419    19462 1
   20088    19420    19421 1
   20089    19420    19424 1
   20090    19421    19422 1
   20091    19421    19425 1
   20092    19422    19423 1
   20093    19423    19424 1
   20094    19423    19434 1
   20095    19424    19430 1
   20096    19425    19426 1
   20097    19425    19429 1
   20098    19426    19427 1
   20099    19427    19428 1
   20100    19427    19431 1
   20101    19428    19429 1
   20102    19432    19433 1
   20103    19432    19440 1
   20104    19433    19434 1
   20105    19433    19441 1
   20106    19434    19435 1
   20107    19435    19436 1
   20108    19435    19439 1
   20109    19436    19437 1
   20110    19437    19438 1
   20111    19438    19439 1
   20112    19439    19440 1
   20113    19440    19574 1
   20114    19442    19443 1
   20115    19442    19483 1
   20116    19442    19484 1
   20117    19442    19485 1
   20118    19443    19444 1
   20119    19443    19486 1
   20120    19443    19487 1
   20121    19444    19445 1
   20122    19444    19488 1
   20123    19444    19489 1
   20124    19445    19446 1
   20125    19445    19490 1
   20126    19445    19491 1
   20127    19446    19447 1
   20128    19446    19492 1
   20129    19446    19493 1
   20130    19447    19448 1
   20131    19447    19494 1
   20132    19447    19495 1
   20133    19448    19449 1
   20134    19448    19496 1
   20135    19448    19497 1
   20136    19449    19450 1
   20137    19449    19498 1
   20138    19449    19499 1
   20139    19450    19451 1
   20140    19450    19500 1
   20141    19450    19501 1
   20142    19451    19452 1
   20143    19451    19502 1
   20144    19451    19503 1
   20145    19452    19453 1
   20146    19452    19461 1
   20147    19452    19504 1
   20148    19453    19454 1
   20149    19453    19505 1
   20150    19453    19506 1
   20151    19454    19455 1
   20152    19454    19507 1
   20153    19454    19508 1
   20154    19455    19456 1
   20155    19455    19509 1
   20156    19455    19510 1
   20157    19456    19457 1
   20158    19456    19511 1
   20159    19456    19512 1
   20160    19457    19458 1
   20161    19457    19513 1
   20162    19457    19514 1
   20163    19458    19459 1
   20164    19458    19515 1
   20165    19458    19516 1
   20166    19459    19460 1
   20167    19459    19517 1
   20168    19459    19518 1
   20169    19460    19519 1
   20170    19460    19520 1
   20171    19460    19521 1
   20172    19461    19462 1
   20173    19461    19522 1
   20174    19461    19523 1
   20175    19462    19463 1
   20176    19463    19464 1
   20177    19463    19524 1
   20178    19463    19525 1
   20179    19464    19465 1
   20180    19464    19473 1
   20181    19464    19526 1
   20182    19465    19466 1
   20183    19465    19527 1
   20184    19465    19528 1
   20185    19466    19467 1
   20186    19466    19529 1
   20187    19466    19530 1
   20188    19467    19468 1
   20189    19467    19531 1
   20190    19467    19532 1
   20191    19468    19469 1
   20192    19468    19533 1
   20193    19468    19534 1
   20194    19469    19470 1
   20195    19469    19535 1
   20196    19469    19536 1
   20197    19470    19471 1
   20198    19470    19537 1
   20199    19470    19538 1
   20200    19471    19472 1
   20201    19471    19539 1
   20202    19471    19540 1
   20203    19472    19541 1
   20204    19472    19542 1
   20205    19472    19543 1
   20206    19473    19474 1
   20207    19473    19544 1
   20208    19473    19545 1
   20209    19474    19475 1
   20210    19474    19546 1
   20211    19474    19547 1
   20212    19475    19476 1
   20213    19475    19548 1
   20214    19475    19549 1
   20215    19476    19477 1
   20216    19476    19550 1
   20217    19476    19551 1
   20218    19477    19478 1
   20219    19477    19552 1
   20220    19477    19553 1
   20221    19478    19479 1
   20222    19478    19554 1
   20223    19478    19555 1
   20224    19479    19480 1
   20225    19479    19556 1
   20226    19479    19557 1
   20227    19480    19481 1
   20228    19480    19558 1
   20229    19480    19559 1
   20230    19481    19482 1
   20231    19481    19560 1
   20232    19481    19561 1
   20233    19482    19562 1
   20234    19482    19563 1
   20235    19482    19564 1
   20236    19565    19566 1
   20237    19565    19572 1
   20238    19565    19608 1
   20239    19566    19567 1
   20240    19566    19570 1
   20241    19567    19568 1
   20242    19567    19571 1
   20243    19568    19569 1
   20244    19569    19570 1
   20245    19569    19580 1
   20246    19570    19576 1
   20247    19571    19572 1
   20248    19571    19575 1
   20249    19572    19573 1
   20250    19573    19574 1
   20251    19573    19577 1
   20252    19574    19575 1
   20253    19578    19579 1
   20254    19578    19586 1
   20255    19579    19580 1
   20256    19579    19587 1
   20257    19580    19581 1
   20258    19581    19582 1
   20259    19581    19585 1
   20260    19582    19583 1
   20261    19583    19584 1
   20262    19584    19585 1
   20263    19585    19586 1
   20264    19586    19720 1
   20265    19588    19589 1
   20266    19588    19629 1
   20267    19588    19630 1
   20268    19588    19631 1
   20269    19589    19590 1
   20270    19589    19632 1
   20271    19589    19633 1
   20272    19590    19591 1
   20273    19590    19634 1
   20274    19590    19635 1
   20275    19591    19592 1
   20276    19591    19636 1
   20277    19591    19637 1
   20278    19592    19593 1
   20279    19592    19638 1
   20280    19592    19639 1
   20281    19593    19594 1
   20282    19593    19640 1
   20283    19593    19641 1
   20284    19594    19595 1
   20285    19594    19642 1
   20286    19594    19643 1
   20287    19595    19596 1
   20288    19595    19644 1
   20289    19595    19645 1
   20290    19596    19597 1
   20291    19596    19646 1
   20292    19596    19647 1
   20293    19597    19598 1
   20294    19597    19648 1
   20295    19597    19649 1
   20296    19598    19599 1
   20297    19598    19607 1
   20298    19598    19650 1
   20299    19599    19600 1
   20300    19599    19651 1
   20301    19599    19652 1
   20302    19600    19601 1
   20303    19600    19653 1
   20304    19600    19654 1
   20305    19601    19602 1
   20306    19601    19655 1
   20307    19601    19656 1
   20308    19602    19603 1
   20309    19602    19657 1
   20310    19602    19658 1
   20311    19603    19604 1
   20312    19603    19659 1
   20313    19603    19660 1
   20314    19604    19605 1
   20315    19604    19661 1
   20316    19604    19662 1
   20317    19605    19606 1
   20318    19605    19663 1
   20319    19605    19664 1
   20320    19606    19665 1
   20321    19606    19666 1
   20322    19606    19667 1
   20323    19607    19608 1
   20324    19607    19668 1
   20325    19607    19669 1
   20326    19608    19609 1
   20327    19609    19610 1
   20328    19609    19670 1
   20329    19609    19671 1
   20330    19610    19611 1
   20331    19610    19619 1
   20332    19610    19672 1
   20333    19611    19612 1
   20334    19611    19673 1
   20335    19611    19674 1
   20336    19612    19613 1
   20337    19612    19675 1
   20338    19612    19676 1
   20339    19613    19614 1
   20340    19613    19677 1
   20341    19613    19678 1
   20342    19614    19615 1
   20343    19614    19679 1
   20344    19614    19680 1
   20345    19615    19616 1
   20346    19615    19681 1
   20347    19615    19682 1
   20348    19616    19617 1
   20349    19616    19683 1
   20350    19616    19684 1
   20351    19617    19618 1
   20352    19617    19685 1
   20353    19617    19686 1
   20354    19618    19687 1
   20355    19618    19688 1
   20356    19618    19689 1
   20357    19619    19620 1
   20358    19619    19690 1
   20359    19619    19691 1
   20360    19620    19621 1
   20361    19620    19692 1
   20362    19620    19693 1
   20363    19621    19622 1
   20364    19621    19694 1
   20365    19621    19695 1
   20366    19622    19623 1
   20367    19622    19696 1
   20368    19622    19697 1
   20369    19623    19624 1
   20370    19623    19698 1
   20371    19623    19699 1
   20372    19624    19625 1
   20373    19624    19700 1
   20374    19624    19701 1
   20375    19625    19626 1
   20376    19625    19702 1
   20377    19625    19703 1
   20378    19626    19627 1
   20379    19626    19704 1
   20380    19626    19705 1
   20381    19627    19628 1
   20382    19627    19706 1
   20383    19627    19707 1
   20384    19628    19708 1
   20385    19628    19709 1
   20386    19628    19710 1
   20387    19711    19712 1
   20388    19711    19718 1
   20389    19711    19754 1
   20390    19712    19713 1
   20391    19712    19716 1
   20392    19713    19714 1
   20393    19713    19717 1
   20394    19714    19715 1
   20395    19715    19716 1
   20396    19715    19726 1
   20397    19716    19722 1
   20398    19717    19718 1
   20399    19717    19721 1
   20400    19718    19719 1
   20401    19719    19720 1
   20402    19719    19723 1
   20403    19720    19721 1
   20404    19724    19725 1
   20405    19724    19732 1
   20406    19725    19726 1
   20407    19725    19733 1
   20408    19726    19727 1
   20409    19727    19728 1
   20410    19727    19731 1
   20411    19728    19729 1
   20412    19729    19730 1
   20413    19730    19731 1
   20414    19731    19732 1
   20415    19732    19866 1
   20416    19734    19735 1
   20417    19734    19775 1
   20418    19734    19776 1
   20419    19734    19777 1
   20420    19735    19736 1
   20421    19735    19778 1
   20422    19735    19779 1
   20423    19736    19737 1
   20424    19736    19780 1
   20425    19736    19781 1
   20426    19737    19738 1
   20427    19737    19782 1
   20428    19737    19783 1
   20429    19738    19739 1
   20430    19738    19784 1
   20431    19738    19785 1
   20432    19739    19740 1
   20433    19739    19786 1
   20434    19739    19787 1
   20435    19740    19741 1
   20436    19740    19788 1
   20437    19740    19789 1
   20438    19741    19742 1
   20439    19741    19790 1
   20440    19741    19791 1
   20441    19742    19743 1
   20442    19742    19792 1
   20443    19742    19793 1
   20444    19743    19744 1
   20445    19743    19794 1
   20446    19743    19795 1
   20447    19744    19745 1
   20448    19744    19753 1
   20449    19744    19796 1
   20450    19745    19746 1
   20451    19745    19797 1
   20452    19745    19798 1
   20453    19746    19747 1
   20454    19746    19799 1
   20455    19746    19800 1
   20456    19747    19748 1
   20457    19747    19801 1
   20458    19747    19802 1
   20459    19748    19749 1
   20460    19748    19803 1
   20461    19748    19804 1
   20462    19749    19750 1
   20463    19749    19805 1
   20464    19749    19806 1
   20465    19750    19751 1
   20466    19750    19807 1
   20467    19750    19808 1
   20468    19751    19752 1
   20469    19751    19809 1
   20470    19751    19810 1
   20471    19752    19811 1
   20472    19752    19812 1
   20473    19752    19813 1
   20474    19753    19754 1
   20475    19753    19814 1
   20476    19753    19815 1
   20477    19754    19755 1
   20478    19755    19756 1
   20479    19755    19816 1
   20480    19755    19817 1
   20481    19756    19757 1
   20482    19756    19765 1
   20483    19756    19818 1
   20484    19757    19758 1
   20485    19757    19819 1
   20486    19757    19820 1
   20487    19758    19759 1
   20488    19758    19821 1
   20489    19758    19822 1
   20490    19759    19760 1
   20491    19759    19823 1
   20492    19759    19824 1
   20493    19760    19761 1
   20494    19760    19825 1
   20495    19760    19826 1
   20496    19761    19762 1
   20497    19761    19827 1
   20498    19761    19828 1
   20499    19762    19763 1
   20500    19762    19829 1
   20501    19762    19830 1
   20502    19763    19764 1
   20503    19763    19831 1
   20504    19763    19832 1
   20505    19764    19833 1
   20506    19764    19834 1
   20507    19764    19835 1
   20508    19765    19766 1
   20509    19765    19836 1
   20510    19765    19837 1
   20511    19766    19767 1
   20512    19766    19838 1
   20513    19766    19839 1
   20514    19767    19768 1
   20515    19767    19840 1
   20516    19767    19841 1
   20517    19768    19769 1
   20518    19768    19842 1
   20519    19768    19843 1
   20520    19769    19770 1
   20521    19769    19844 1
   20522    19769    19845 1
   20523    19770    19771 1
   20524    19770    19846 1
   20525    19770    19847 1
   20526    19771    19772 1
   20527    19771    19848 1
   20528    19771    19849 1
   20529    19772    19773 1
   20530    19772    19850 1
   20531    19772    19851 1
   20532    19773    19774 1
   20533    19773    19852 1
   20534    19773    19853 1
   20535    19774    19854 1
   20536    19774    19855 1
   20537    19774    19856 1
   20538    19857    19858 1
   20539    19857    19864 1
   20540    19857    19900 1
   20541    19858    19859 1
   20542    19858    19862 1
   20543    19859    19860 1
   20544    19859    19863 1
   20545    19860    19861 1
   20546    19861    19862 1
   20547    19861    19872 1
   20548    19862    19868 1
   20549    19863    19864 1
   20550    19863    19867 1
   20551    19864    19865 1
   20552    19865    19866 1
   20553    19865    19869 1
   20554    19866    19867 1
   20555    19870    19871 1
   20556    19870    19878 1
   20557    19871    19872 1
   20558    19871    19879 1
   20559    19872    19873 1
   20560    19873    19874 1
   20561    19873    19877 1
   20562    19874    19875 1
   20563    19875    19876 1
   20564    19876    19877 1
   20565    19877    19878 1
   20566    19878    20012 1
   20567    19880    19881 1
   20568    19880    19921 1
   20569    19880    19922 1
   20570    19880    19923 1
   20571    19881    19882 1
   20572    19881    19924 1
   20573    19881    19925 1
   20574    19882    19883 1
   20575    19882    19926 1
   20576    19882    19927 1
   20577    19883    19884 1
   20578    19883    19928 1
   20579    19883    19929 1
   20580    19884    19885 1
   20581    19884    19930 1
   20582    19884    19931 1
   20583    19885    19886 1
   20584    19885    19932 1
   20585    19885    19933 1
   20586    19886    19887 1
   20587    19886    19934 1
   20588    19886    19935 1
   20589    19887    19888 1
   20590    19887    19936 1
   20591    19887    19937 1
   20592    19888    19889 1
   20593    19888    19938 1
   20594    19888    19939 1
   20595    19889    19890 1
   20596    19889    19940 1
   20597    19889    19941 1
   20598    19890    19891 1
   20599    19890    19899 1
   20600    19890    19942 1
   20601    19891    19892 1
   20602    19891    19943 1
   20603    19891    19944 1
   20604    19892    19893 1
   20605    19892    19945 1
   20606    19892    19946 1
   20607    19893    19894 1
   20608    19893    19947 1
   20609    19893    19948 1
   20610    19894    19895 1
   20611    19894    19949 1
   20612    19894    19950 1
   20613    19895    19896 1
   20614    19895    19951 1
   20615    19895    19952 1
   20616    19896    19897 1
   20617    19896    19953 1
   20618    19896    19954 1
   20619    19897    19898 1
   20620    19897    19955 1
   20621    19897    19956 1
   20622    19898    19957 1
   20623    19898    19958 1
   20624    19898    19959 1
   20625    19899    19900 1
   20626    19899    19960 1
   20627    19899    19961 1
   20628    19900    19901 1
   20629    19901    19902 1
   20630    19901    19962 1
   20631    19901    19963 1
   20632    19902    19903 1
   20633    19902    19911 1
   20634    19902    19964 1
   20635    19903    19904 1
   20636    19903    19965 1
   20637    19903    19966 1
   20638    19904    19905 1
   20639    19904    19967 1
   20640    19904    19968 1
   20641    19905    19906 1
   20642    19905    19969 1
   20643    19905    19970 1
   20644    19906    19907 1
   20645    19906    19971 1
   20646    19906    19972 1
   20647    19907    19908 1
   20648    19907    19973 1
   20649    19907    19974 1
   20650    19908    19909 1
   20651    19908    19975 1
   20652    19908    19976 1
   20653    19909    19910 1
   20654    19909    19977 1
   20655    19909    19978 1
   20656    19910    19979 1
   20657    19910    19980 1
   20658    19910    19981 1
   20659    19911    19912 1
   20660    19911    19982 1
   20661    19911    19983 1
   20662    19912    19913 1
   20663    19912    19984 1
   20664    19912    19985 1
   20665    19913    19914 1
   20666    19913    19986 1
   20667    19913    19987 1
   20668    19914    19915 1
   20669    19914    19988 1
   20670    19914    19989 1
   20671    19915    19916 1
   20672    19915    19990 1
   20673    19915    19991 1
   20674    19916    19917 1
   20675    19916    19992 1
   20676    19916    19993 1
   20677    19917    19918 1
   20678    19917    19994 1
   20679    19917    19995 1
   20680    19918    19919 1
   20681    19918    19996 1
   20682    19918    19997 1
   20683    19919    19920 1
   20684    19919    19998 1
   20685    19919    19999 1
   20686    19920    20000 1
   20687    19920    20001 1
   20688    19920    20002 1
   20689    20003    20004 1
   20690    20003    20010 1
   20691    20003    20046 1
   20692    20004    20005 1
   20693    20004    20008 1
   20694    20005    20006 1
   20695    20005    20009 1
   20696    20006    20007 1
   20697    20007    20008 1
   20698    20007    20018 1
   20699    20008    20014 1
   20700    20009    20010 1
   20701    20009    20013 1
   20702    20010    20011 1
   20703    20011    20012 1
   20704    20011    20015 1
   20705    20012    20013 1
   20706    20016    20017 1
   20707    20016    20024 1
   20708    20017    20018 1
   20709    20017    20025 1
   20710    20018    20019 1
   20711    20019    20020 1
   20712    20019    20023 1
   20713    20020    20021 1
   20714    20021    20022 1
   20715    20022    20023 1
   20716    20023    20024 1
   20717    20024    20158 1
   20718    20026    20027 1
   20719    20026    20067 1
   20720    20026    20068 1
   20721    20026    20069 1
   20722    20027    20028 1
   20723    20027    20070 1
   20724    20027    20071 1
   20725    20028    20029 1
   20726    20028    20072 1
   20727    20028    20073 1
   20728    20029    20030 1
   20729    20029    20074 1
   20730    20029    20075 1
   20731    20030    20031 1
   20732    20030    20076 1
   20733    20030    20077 1
   20734    20031    20032 1
   20735    20031    20078 1
   20736    20031    20079 1
   20737    20032    20033 1
   20738    20032    20080 1
   20739    20032    20081 1
   20740    20033    20034 1
   20741    20033    20082 1
   20742    20033    20083 1
   20743    20034    20035 1
   20744    20034    20084 1
   20745    20034    20085 1
   20746    20035    20036 1
   20747    20035    20086 1
   20748    20035    20087 1
   20749    20036    20037 1
   20750    20036    20045 1
   20751    20036    20088 1
   20752    20037    20038 1
   20753    20037    20089 1
   20754    20037    20090 1
   20755    20038    20039 1
   20756    20038    20091 1
   20757    20038    20092 1
   20758    20039    20040 1
   20759    20039    20093 1
   20760    20039    20094 1
   20761    20040    20041 1
   20762    20040    20095 1
   20763    20040    20096 1
   20764    20041    20042 1
   20765    20041    20097 1
   20766    20041    20098 1
   20767    20042    20043 1
   20768    20042    20099 1
   20769    20042    20100 1
   20770    20043    20044 1
   20771    20043    20101 1
   20772    20043    20102 1
   20773    20044    20103 1
   20774    20044    20104 1
   20775    20044    20105 1
   20776    20045    20046 1
   20777    20045    20106 1
   20778    20045    20107 1
   20779    20046    20047 1
   20780    20047    20048 1
   20781    20047    20108 1
   20782    20047    20109 1
   20783    20048    20049 1
   20784    20048    20057 1
   20785    20048    20110 1
   20786    20049    20050 1
   20787    20049    20111 1
   20788    20049    20112 1
   20789    20050    20051 1
   20790    20050    20113 1
   20791    20050    20114 1
   20792    20051    20052 1
   20793    20051    20115 1
   20794    20051    20116 1
   20795    20052    20053 1
   20796    20052    20117 1
   20797    20052    20118 1
   20798    20053    20054 1
   20799    20053    20119 1
   20800    20053    20120 1
   20801    20054    20055 1
   20802    20054    20121 1
   20803    20054    20122 1
   20804    20055    20056 1
   20805    20055    20123 1
   20806    20055    20124 1
   20807    20056    20125 1
   20808    20056    20126 1
   20809    20056    20127 1
   20810    20057    20058 1
   20811    20057    20128 1
   20812    20057    20129 1
   20813    20058    20059 1
   20814    20058    20130 1
   20815    20058    20131 1
   20816    20059    20060 1
   20817    20059    20132 1
   20818    20059    20133 1
   20819    20060    20061 1
   20820    20060    20134 1
   20821    20060    20135 1
   20822    20061    20062 1
   20823    20061    20136 1
   20824    20061    20137 1
   20825    20062    20063 1
   20826    20062    20138 1
   20827    20062    20139 1
   20828    20063    20064 1
   20829    20063    20140 1
   20830    20063    20141 1
   20831    20064    20065 1
   20832    20064    20142 1
   20833    20064    20143 1
   20834    20065    20066 1
   20835    20065    20144 1
   20836    20065    20145 1
   20837    20066    20146 1
   20838    20066    20147 1
   20839    20066    20148 1
   20840    20149    20150 1
   20841    20149    20156 1
   20842    20149    20192 1
   20843    20150    20151 1
   20844    20150    20154 1
   20845    20151    20152 1
   20846    20151    20155 1
   20847    20152    20153 1
   20848    20153    20154 1
   20849    20153    20164 1
   20850    20154    20160 1
   20851    20155    20156 1
   20852    20155    20159 1
   20853    20156    20157 1
   20854    20157    20158 1
   20855    20157    20161 1
   20856    20158    20159 1
   20857    20162    20163 1
   20858    20162    20170 1
   20859    20163    20164 1
   20860    20163    20171 1
   20861    20164    20165 1
   20862    20165    20166 1
   20863    20165    20169 1
   20864    20166    20167 1
   20865    20167    20168 1
   20866    20168    20169 1
   20867    20169    20170 1
   20868    20170    20304 1
   20869    20172    20173 1
   20870    20172    20213 1
   20871    20172    20214 1
   20872    20172    20215 1
   20873    20173    20174 1
   20874    20173    20216 1
   20875    20173    20217 1
   20876    20174    20175 1
   20877    20174    20218 1
   20878    20174    20219 1
   20879    20175    20176 1
   20880    20175    20220 1
   20881    20175    20221 1
   20882    20176    20177 1
   20883    20176    20222 1
   20884    20176    20223 1
   20885    20177    20178 1
   20886    20177    20224 1
   20887    20177    20225 1
   20888    20178    20179 1
   20889    20178    20226 1
   20890    20178    20227 1
   20891    20179    20180 1
   20892    20179    20228 1
   20893    20179    20229 1
   20894    20180    20181 1
   20895    20180    20230 1
   20896    20180    20231 1
   20897    20181    20182 1
   20898    20181    20232 1
   20899    20181    20233 1
   20900    20182    20183 1
   20901    20182    20191 1
   20902    20182    20234 1
   20903    20183    20184 1
   20904    20183    20235 1
   20905    20183    20236 1
   20906    20184    20185 1
   20907    20184    20237 1
   20908    20184    20238 1
   20909    20185    20186 1
   20910    20185    20239 1
   20911    20185    20240 1
   20912    20186    20187 1
   20913    20186    20241 1
   20914    20186    20242 1
   20915    20187    20188 1
   20916    20187    20243 1
   20917    20187    20244 1
   20918    20188    20189 1
   20919    20188    20245 1
   20920    20188    20246 1
   20921    20189    20190 1
   20922    20189    20247 1
   20923    20189    20248 1
   20924    20190    20249 1
   20925    20190    20250 1
   20926    20190    20251 1
   20927    20191    20192 1
   20928    20191    20252 1
   20929    20191    20253 1
   20930    20192    20193 1
   20931    20193    20194 1
   20932    20193    20254 1
   20933    20193    20255 1
   20934    20194    20195 1
   20935    20194    20203 1
   20936    20194    20256 1
   20937    20195    20196 1
   20938    20195    20257 1
   20939    20195    20258 1
   20940    20196    20197 1
   20941    20196    20259 1
   20942    20196    20260 1
   20943    20197    20198 1
   20944    20197    20261 1
   20945    20197    20262 1
   20946    20198    20199 1
   20947    20198    20263 1
   20948    20198    20264 1
   20949    20199    20200 1
   20950    20199    20265 1
   20951    20199    20266 1
   20952    20200    20201 1
   20953    20200    20267 1
   20954    20200    20268 1
   20955    20201    20202 1
   20956    20201    20269 1
   20957    20201    20270 1
   20958    20202    20271 1
   20959    20202    20272 1
   20960    20202    20273 1
   20961    20203    20204 1
   20962    20203    20274 1
   20963    20203    20275 1
   20964    20204    20205 1
   20965    20204    20276 1
   20966    20204    20277 1
   20967    20205    20206 1
   20968    20205    20278 1
   20969    20205    20279 1
   20970    20206    20207 1
   20971    20206    20280 1
   20972    20206    20281 1
   20973    20207    20208 1
   20974    20207    20282 1
   20975    20207    20283 1
   20976    20208    20209 1
   20977    20208    20284 1
   20978    20208    20285 1
   20979    20209    20210 1
   20980    20209    20286 1
   20981    20209    20287 1
   20982    20210    20211 1
   20983    20210    20288 1
   20984    20210    20289 1
   20985    20211    20212 1
   20986    20211    20290 1
   20987    20211    20291 1
   20988    20212    20292 1
   20989    20212    20293 1
   20990    20212    20294 1
   20991    20295    20296 1
   20992    20295    20302 1
   20993    20295    20338 1
   20994    20296    20297 1
   20995    20296    20300 1
   20996    20297    20298 1
   20997    20297    20301 1
   20998    20298    20299 1
   20999    20299    20300 1
   21000    20299    20310 1
   21001    20300    20306 1
   21002    20301    20302 1
   21003    20301    20305 1
   21004    20302    20303 1
   21005    20303    20304 1
   21006    20303    20307 1
   21007    20304    20305 1
   21008    20308    20309 1
   21009    20308    20316 1
   21010    20309    20310 1
   21011    20309    20317 1
   21012    20310    20311 1
   21013    20311    20312 1
   21014    20311    20315 1
   21015    20312    20313 1
   21016    20313    20314 1
   21017    20314    20315 1
   21018    20315    20316 1
   21019    20316    20450 1
   21020    20318    20319 1
   21021    20318    20359 1
   21022    20318    20360 1
   21023    20318    20361 1
   21024    20319    20320 1
   21025    20319    20362 1
   21026    20319    20363 1
   21027    20320    20321 1
   21028    20320    20364 1
   21029    20320    20365 1
   21030    20321    20322 1
   21031    20321    20366 1
   21032    20321    20367 1
   21033    20322    20323 1
   21034    20322    20368 1
   21035    20322    20369 1
   21036    20323    20324 1
   21037    20323    20370 1
   21038    20323    20371 1
   21039    20324    20325 1
   21040    20324    20372 1
   21041    20324    20373 1
   21042    20325    20326 1
   21043    20325    20374 1
   21044    20325    20375 1
   21045    20326    20327 1
   21046    20326    20376 1
   21047    20326    20377 1
   21048    20327    20328 1
   21049    20327    20378 1
   21050    20327    20379 1
   21051    20328    20329 1
   21052    20328    20337 1
   21053    20328    20380 1
   21054    20329    20330 1
   21055    20329    20381 1
   21056    20329    20382 1
   21057    20330    20331 1
   21058    20330    20383 1
   21059    20330    20384 1
   21060    20331    20332 1
   21061    20331    20385 1
   21062    20331    20386 1
   21063    20332    20333 1
   21064    20332    20387 1
   21065    20332    20388 1
   21066    20333    20334 1
   21067    20333    20389 1
   21068    20333    20390 1
   21069    20334    20335 1
   21070    20334    20391 1
   21071    20334    20392 1
   21072    20335    20336 1
   21073    20335    20393 1
   21074    20335    20394 1
   21075    20336    20395 1
   21076    20336    20396 1
   21077    20336    20397 1
   21078    20337    20338 1
   21079    20337    20398 1
   21080    20337    20399 1
   21081    20338    20339 1
   21082    20339    20340 1
   21083    20339    20400 1
   21084    20339    20401 1
   21085    20340    20341 1
   21086    20340    20349 1
   21087    20340    20402 1
   21088    20341    20342 1
   21089    20341    20403 1
   21090    20341    20404 1
   21091    20342    20343 1
   21092    20342    20405 1
   21093    20342    20406 1
   21094    20343    20344 1
   21095    20343    20407 1
   21096    20343    20408 1
   21097    20344    20345 1
   21098    20344    20409 1
   21099    20344    20410 1
   21100    20345    20346 1
   21101    20345    20411 1
   21102    20345    20412 1
   21103    20346    20347 1
   21104    20346    20413 1
   21105    20346    20414 1
   21106    20347    20348 1
   21107    20347    20415 1
   21108    20347    20416 1
   21109    20348    20417 1
   21110    20348    20418 1
   21111    20348    20419 1
   21112    20349    20350 1
   21113    20349    20420 1
   21114    20349    20421 1
   21115    20350    20351 1
   21116    20350    20422 1
   21117    20350    20423 1
   21118    20351    20352 1
   21119    20351    20424 1
   21120    20351    20425 1
   21121    20352    20353 1
   21122    20352    20426 1
   21123    20352    20427 1
   21124    20353    20354 1
   21125    20353    20428 1
   21126    20353    20429 1
   21127    20354    20355 1
   21128    20354    20430 1
   21129    20354    20431 1
   21130    20355    20356 1
   21131    20355    20432 1
   21132    20355    20433 1
   21133    20356    20357 1
   21134    20356    20434 1
   21135    20356    20435 1
   21136    20357    20358 1
   21137    20357    20436 1
   21138    20357    20437 1
   21139    20358    20438 1
   21140    20358    20439 1
   21141    20358    20440 1
   21142    20441    20442 1
   21143    20441    20448 1
   21144    20441    20484 1
   21145    20442    20443 1
   21146    20442    20446 1
   21147    20443    20444 1
   21148    20443    20447 1
   21149    20444    20445 1
   21150    20445    20446 1
   21151    20445    20456 1
   21152    20446    20452 1
   21153    20447    20448 1
   21154    20447    20451 1
   21155    20448    20449 1
   21156    20449    20450 1
   21157    20449    20453 1
   21158    20450    20451 1
   21159    20454    20455 1
   21160    20454    20462 1
   21161    20455    20456 1
   21162    20455    20463 1
   21163    20456    20457 1
   21164    20457    20458 1
   21165    20457    20461 1
   21166    20458    20459 1
   21167    20459    20460 1
   21168    20460    20461 1
   21169    20461    20462 1
   21170    20462    20596 1
   21171    20464    20465 1
   21172    20464    20505 1
   21173    20464    20506 1
   21174    20464    20507 1
   21175    20465    20466 1
   21176    20465    20508 1
   21177    20465    20509 1
   21178    20466    20467 1
   21179    20466    20510 1
   21180    20466    20511 1
   21181    20467    20468 1
   21182    20467    20512 1
   21183    20467    20513 1
   21184    20468    20469 1
   21185    20468    20514 1
   21186    20468    20515 1
   21187    20469    20470 1
   21188    20469    20516 1
   21189    20469    20517 1
   21190    20470    20471 1
   21191    20470    20518 1
   21192    20470    20519 1
   21193    20471    20472 1
   21194    20471    20520 1
   21195    20471    20521 1
   21196    20472    20473 1
   21197    20472    20522 1
   21198    20472    20523 1
   21199    20473    20474 1
   21200    20473    20524 1
   21201    20473    20525 1
   21202    20474    20475 1
   21203    20474    20483 1
   21204    20474    20526 1
   21205    20475    20476 1
   21206    20475    20527 1
   21207    20475    20528 1
   21208    20476    20477 1
   21209    20476    20529 1
   21210    20476    20530 1
   21211    20477    20478 1
   21212    20477    20531 1
   21213    20477    20532 1
   21214    20478    20479 1
   21215    20478    20533 1
   21216    20478    20534 1
   21217    20479    20480 1
   21218    20479    20535 1
   21219    20479    20536 1
   21220    20480    20481 1
   21221    20480    20537 1
   21222    20480    20538 1
   21223    20481    20482 1
   21224    20481    20539 1
   21225    20481    20540 1
   21226    20482    20541 1
   21227    20482    20542 1
   21228    20482    20543 1
   21229    20483    20484 1
   21230    20483    20544 1
   21231    20483    20545 1
   21232    20484    20485 1
   21233    20485    20486 1
   21234    20485    20546 1
   21235    20485    20547 1
   21236    20486    20487 1
   21237    20486    20495 1
   21238    20486    20548 1
   21239    20487    20488 1
   21240    20487    20549 1
   21241    20487    20550 1
   21242    20488    20489 1
   21243    20488    20551 1
   21244    20488    20552 1
   21245    20489    20490 1
   21246    20489    20553 1
   21247    20489    20554 1
   21248    20490    20491 1
   21249    20490    20555 1
   21250    20490    20556 1
   21251    20491    20492 1
   21252    20491    20557 1
   21253    20491    20558 1
   21254    20492    20493 1
   21255    20492    20559 1
   21256    20492    20560 1
   21257    20493    20494 1
   21258    20493    20561 1
   21259    20493    20562 1
   21260    20494    20563 1
   21261    20494    20564 1
   21262    20494    20565 1
   21263    20495    20496 1
   21264    20495    20566 1
   21265    20495    20567 1
   21266    20496    20497 1
   21267    20496    20568 1
   21268    20496    20569 1
   21269    20497    20498 1
   21270    20497    20570 1
   21271    20497    20571 1
   21272    20498    20499 1
   21273    20498    20572 1
   21274    20498    20573 1
   21275    20499    20500 1
   21276    20499    20574 1
   21277    20499    20575 1
   21278    20500    20501 1
   21279    20500    20576 1
   21280    20500    20577 1
   21281    20501    20502 1
   21282    20501    20578 1
   21283    20501    20579 1
   21284    20502    20503 1
   21285    20502    20580 1
   21286    20502    20581 1
   21287    20503    20504 1
   21288    20503    20582 1
   21289    20503    20583 1
   21290    20504    20584 1
   21291    20504    20585 1
   21292    20504    20586 1
   21293    20587    20588 1
   21294    20587    20594 1
   21295    20587    20630 1
   21296    20588    20589 1
   21297    20588    20592 1
   21298    20589    20590 1
   21299    20589    20593 1
   21300    20590    20591 1
   21301    20591    20592 1
   21302    20591    20602 1
   21303    20592    20598 1
   21304    20593    20594 1
   21305    20593    20597 1
   21306    20594    20595 1
   21307    20595    20596 1
   21308    20595    20599 1
   21309    20596    20597 1
   21310    20600    20601 1
   21311    20600    20608 1
   21312    20601    20602 1
   21313    20601    20609 1
   21314    20602    20603 1
   21315    20603    20604 1
   21316    20603    20607 1
   21317    20604    20605 1
   21318    20605    20606 1
   21319    20606    20607 1
   21320    20607    20608 1
   21321    20608    20742 1
   21322    20610    20611 1
   21323    20610    20651 1
   21324    20610    20652 1
   21325    20610    20653 1
   21326    20611    20612 1
   21327    20611    20654 1
   21328    20611    20655 1
   21329    20612    20613 1
   21330    20612    20656 1
   21331    20612    20657 1
   21332    20613    20614 1
   21333    20613    20658 1
   21334    20613    20659 1
   21335    20614    20615 1
   21336    20614    20660 1
   21337    20614    20661 1
   21338    20615    20616 1
   21339    20615    20662 1
   21340    20615    20663 1
   21341    20616    20617 1
   21342    20616    20664 1
   21343    20616    20665 1
   21344    20617    20618 1
   21345    20617    20666 1
   21346    20617    20667 1
   21347    20618    20619 1
   21348    20618    20668 1
   21349    20618    20669 1
   21350    20619    20620 1
   21351    20619    20670 1
   21352    20619    20671 1
   21353    20620    20621 1
   21354    20620    20629 1
   21355    20620    20672 1
   21356    20621    20622 1
   21357    20621    20673 1
   21358    20621    20674 1
   21359    20622    20623 1
   21360    20622    20675 1
   21361    20622    20676 1
   21362    20623    20624 1
   21363    20623    20677 1
   21364    20623    20678 1
   21365    20624    20625 1
   21366    20624    20679 1
   21367    20624    20680 1
   21368    20625    20626 1
   21369    20625    20681 1
   21370    20625    20682 1
   21371    20626    20627 1
   21372    20626    20683 1
   21373    20626    20684 1
   21374    20627    20628 1
   21375    20627    20685 1
   21376    20627    20686 1
   21377    20628    20687 1
   21378    20628    20688 1
   21379    20628    20689 1
   21380    20629    20630 1
   21381    20629    20690 1
   21382    20629    20691 1
   21383    20630    20631 1
   21384    20631    20632 1
   21385    20631    20692 1
   21386    20631    20693 1
   21387    20632    20633 1
   21388    20632    20641 1
   21389    20632    20694 1
   21390    20633    20634 1
   21391    20633    20695 1
   21392    20633    20696 1
   21393    20634    20635 1
   21394    20634    20697 1
   21395    20634    20698 1
   21396    20635    20636 1
   21397    20635    20699 1
   21398    20635    20700 1
   21399    20636    20637 1
   21400    20636    20701 1
   21401    20636    20702 1
   21402    20637    20638 1
   21403    20637    20703 1
   21404    20637    20704 1
   21405    20638    20639 1
   21406    20638    20705 1
   21407    20638    20706 1
   21408    20639    20640 1
   21409    20639    20707 1
   21410    20639    20708 1
   21411    20640    20709 1
   21412    20640    20710 1
   21413    20640    20711 1
   21414    20641    20642 1
   21415    20641    20712 1
   21416    20641    20713 1
   21417    20642    20643 1
   21418    20642    20714 1
   21419    20642    20715 1
   21420    20643    20644 1
   21421    20643    20716 1
   21422    20643    20717 1
   21423    20644    20645 1
   21424    20644    20718 1
   21425    20644    20719 1
   21426    20645    20646 1
   21427    20645    20720 1
   21428    20645    20721 1
   21429    20646    20647 1
   21430    20646    20722 1
   21431    20646    20723 1
   21432    20647    20648 1
   21433    20647    20724 1
   21434    20647    20725 1
   21435    20648    20649 1
   21436    20648    20726 1
   21437    20648    20727 1
   21438    20649    20650 1
   21439    20649    20728 1
   21440    20649    20729 1
   21441    20650    20730 1
   21442    20650    20731 1
   21443    20650    20732 1
   21444    20733    20734 1
   21445    20733    20740 1
   21446    20733    20776 1
   21447    20734    20735 1
   21448    20734    20738 1
   21449    20735    20736 1
   21450    20735    20739 1
   21451    20736    20737 1
   21452    20737    20738 1
   21453    20737    20748 1
   21454    20738    20744 1
   21455    20739    20740 1
   21456    20739    20743 1
   21457    20740    20741 1
   21458    20741    20742 1
   21459    20741    20745 1
   21460    20742    20743 1
   21461    20746    20747 1
   21462    20746    20754 1
   21463    20747    20748 1
   21464    20747    20755 1
   21465    20748    20749 1
   21466    20749    20750 1
   21467    20749    20753 1
   21468    20750    20751 1
   21469    20751    20752 1
   21470    20752    20753 1
   21471    20753    20754 1
   21472    20754    20888 1
   21473    20756    20757 1
   21474    20756    20797 1
   21475    20756    20798 1
   21476    20756    20799 1
   21477    20757    20758 1
   21478    20757    20800 1
   21479    20757    20801 1
   21480    20758    20759 1
   21481    20758    20802 1
   21482    20758    20803 1
   21483    20759    20760 1
   21484    20759    20804 1
   21485    20759    20805 1
   21486    20760    20761 1
   21487    20760    20806 1
   21488    20760    20807 1
   21489    20761    20762 1
   21490    20761    20808 1
   21491    20761    20809 1
   21492    20762    20763 1
   21493    20762    20810 1
   21494    20762    20811 1
   21495    20763    20764 1
   21496    20763    20812 1
   21497    20763    20813 1
   21498    20764    20765 1
   21499    20764    20814 1
   21500    20764    20815 1
   21501    20765    20766 1
   21502    20765    20816 1
   21503    20765    20817 1
   21504    20766    20767 1
   21505    20766    20775 1
   21506    20766    20818 1
   21507    20767    20768 1
   21508    20767    20819 1
   21509    20767    20820 1
   21510    20768    20769 1
   21511    20768    20821 1
   21512    20768    20822 1
   21513    20769    20770 1
   21514    20769    20823 1
   21515    20769    20824 1
   21516    20770    20771 1
   21517    20770    20825 1
   21518    20770    20826 1
   21519    20771    20772 1
   21520    20771    20827 1
   21521    20771    20828 1
   21522    20772    20773 1
   21523    20772    20829 1
   21524    20772    20830 1
   21525    20773    20774 1
   21526    20773    20831 1
   21527    20773    20832 1
   21528    20774    20833 1
   21529    20774    20834 1
   21530    20774    20835 1
   21531    20775    20776 1
   21532    20775    20836 1
   21533    20775    20837 1
   21534    20776    20777 1
   21535    20777    20778 1
   21536    20777    20838 1
   21537    20777    20839 1
   21538    20778    20779 1
   21539    20778    20787 1
   21540    20778    20840 1
   21541    20779    20780 1
   21542    20779    20841 1
   21543    20779    20842 1
   21544    20780    20781 1
   21545    20780    20843 1
   21546    20780    20844 1
   21547    20781    20782 1
   21548    20781    20845 1
   21549    20781    20846 1
   21550    20782    20783 1
   21551    20782    20847 1
   21552    20782    20848 1
   21553    20783    20784 1
   21554    20783    20849 1
   21555    20783    20850 1
   21556    20784    20785 1
   21557    20784    20851 1
   21558    20784    20852 1
   21559    20785    20786 1
   21560    20785    20853 1
   21561    20785    20854 1
   21562    20786    20855 1
   21563    20786    20856 1
   21564    20786    20857 1
   21565    20787    20788 1
   21566    20787    20858 1
   21567    20787    20859 1
   21568    20788    20789 1
   21569    20788    20860 1
   21570    20788    20861 1
   21571    20789    20790 1
   21572    20789    20862 1
   21573    20789    20863 1
   21574    20790    20791 1
   21575    20790    20864 1
   21576    20790    20865 1
   21577    20791    20792 1
   21578    20791    20866 1
   21579    20791    20867 1
   21580    20792    20793 1
   21581    20792    20868 1
   21582    20792    20869 1
   21583    20793    20794 1
   21584    20793    20870 1
   21585    20793    20871 1
   21586    20794    20795 1
   21587    20794    20872 1
   21588    20794    20873 1
   21589    20795    20796 1
   21590    20795    20874 1
   21591    20795    20875 1
   21592    20796    20876 1
   21593    20796    20877 1
   21594    20796    20878 1
   21595    20879    20880 1
   21596    20879    20886 1
   21597    20879    20922 1
   21598    20880    20881 1
   21599    20880    20884 1
   21600    20881    20882 1
   21601    20881    20885 1
   21602    20882    20883 1
   21603    20883    20884 1
   21604    20883    20894 1
   21605    20884    20890 1
   21606    20885    20886 1
   21607    20885    20889 1
   21608    20886    20887 1
   21609    20887    20888 1
   21610    20887    20891 1
   21611    20888    20889 1
   21612    20892    20893 1
   21613    20892    20900 1
   21614    20893    20894 1
   21615    20893    20901 1
   21616    20894    20895 1
   21617    20895    20896 1
   21618    20895    20899 1
   21619    20896    20897 1
   21620    20897    20898 1
   21621    20898    20899 1
   21622    20899    20900 1
   21623    20900    21034 1
   21624    20902    20903 1
   21625    20902    20943 1
   21626    20902    20944 1
   21627    20902    20945 1
   21628    20903    20904 1
   21629    20903    20946 1
   21630    20903    20947 1
   21631    20904    20905 1
   21632    20904    20948 1
   21633    20904    20949 1
   21634    20905    20906 1
   21635    20905    20950 1
   21636    20905    20951 1
   21637    20906    20907 1
   21638    20906    20952 1
   21639    20906    20953 1
   21640    20907    20908 1
   21641    20907    20954 1
   21642    20907    20955 1
   21643    20908    20909 1
   21644    20908    20956 1
   21645    20908    20957 1
   21646    20909    20910 1
   21647    20909    20958 1
   21648    20909    20959 1
   21649    20910    20911 1
   21650    20910    20960 1
   21651    20910    20961 1
   21652    20911    20912 1
   21653    20911    20962 1
   21654    20911    20963 1
   21655    20912    20913 1
   21656    20912    20921 1
   21657    20912    20964 1
   21658    20913    20914 1
   21659    20913    20965 1
   21660    20913    20966 1
   21661    20914    20915 1
   21662    20914    20967 1
   21663    20914    20968 1
   21664    20915    20916 1
   21665    20915    20969 1
   21666    20915    20970 1
   21667    20916    20917 1
   21668    20916    20971 1
   21669    20916    20972 1
   21670    20917    20918 1
   21671    20917    20973 1
   21672    20917    20974 1
   21673    20918    20919 1
   21674    20918    20975 1
   21675    20918    20976 1
   21676    20919    20920 1
   21677    20919    20977 1
   21678    20919    20978 1
   21679    20920    20979 1
   21680    20920    20980 1
   21681    20920    20981 1
   21682    20921    20922 1
   21683    20921    20982 1
   21684    20921    20983 1
   21685    20922    20923 1
   21686    20923    20924 1
   21687    20923    20984 1
   21688    20923    20985 1
   21689    20924    20925 1
   21690    20924    20933 1
   21691    20924    20986 1
   21692    20925    20926 1
   21693    20925    20987 1
   21694    20925    20988 1
   21695    20926    20927 1
   21696    20926    20989 1
   21697    20926    20990 1
   21698    20927    20928 1
   21699    20927    20991 1
   21700    20927    20992 1
   21701    20928    20929 1
   21702    20928    20993 1
   21703    20928    20994 1
   21704    20929    20930 1
   21705    20929    20995 1
   21706    20929    20996 1
   21707    20930    20931 1
   21708    20930    20997 1
   21709    20930    20998 1
   21710    20931    20932 1
   21711    20931    20999 1
   21712    20931    21000 1
   21713    20932    21001 1
   21714    20932    21002 1
   21715    20932    21003 1
   21716    20933    20934 1
   21717    20933    21004 1
   21718    20933    21005 1
   21719    20934    20935 1
   21720    20934    21006 1
   21721    20934    21007 1
   21722    20935    20936 1
   21723    20935    21008 1
   21724    20935    21009 1
   21725    20936    20937 1
   21726    20936    21010 1
   21727    20936    21011 1
   21728    20937    20938 1
   21729    20937    21012 1
   21730    20937    21013 1
   21731    20938    20939 1
   21732    20938    21014 1
   21733    20938    21015 1
   21734    20939    20940 1
   21735    20939    21016 1
   21736    20939    21017 1
   21737    20940    20941 1
   21738    20940    21018 1
   21739    20940    21019 1
   21740    20941    20942 1
   21741    20941    21020 1
   21742    20941    21021 1
   21743    20942    21022 1
   21744    20942    21023 1
   21745    20942    21024 1
   21746    21025    21026 1
   21747    21025    21032 1
   21748    21025    21068 1
   21749    21026    21027 1
   21750    21026    21030 1
   21751    21027    21028 1
   21752    21027    21031 1
   21753    21028    21029 1
   21754    21029    21030 1
   21755    21029    21040 1
   21756    21030    21036 1
   21757    21031    21032 1
   21758    21031    21035 1
   21759    21032    21033 1
   21760    21033    21034 1
   21761    21033    21037 1
   21762    21034    21035 1
   21763    21038    21039 1
   21764    21038    21046 1
   21765    21039    21040 1
   21766    21039    21047 1
   21767    21040    21041 1
   21768    21041    21042 1
   21769    21041    21045 1
   21770    21042    21043 1
   21771    21043    21044 1
   21772    21044    21045 1
   21773    21045    21046 1
   21774    21046    21180 1
   21775    21048    21049 1
   21776    21048    21089 1
   21777    21048    21090 1
   21778    21048    21091 1
   21779    21049    21050 1
   21780    21049    21092 1
   21781    21049    21093 1
   21782    21050    21051 1
   21783    21050    21094 1
   21784    21050    21095 1
   21785    21051    21052 1
   21786    21051    21096 1
   21787    21051    21097 1
   21788    21052    21053 1
   21789    21052    21098 1
   21790    21052    21099 1
   21791    21053    21054 1
   21792    21053    21100 1
   21793    21053    21101 1
   21794    21054    21055 1
   21795    21054    21102 1
   21796    21054    21103 1
   21797    21055    21056 1
   21798    21055    21104 1
   21799    21055    21105 1
   21800    21056    21057 1
   21801    21056    21106 1
   21802    21056    21107 1
   21803    21057    21058 1
   21804    21057    21108 1
   21805    21057    21109 1
   21806    21058    21059 1
   21807    21058    21067 1
   21808    21058    21110 1
   21809    21059    21060 1
   21810    21059    21111 1
   21811    21059    21112 1
   21812    21060    21061 1
   21813    21060    21113 1
   21814    21060    21114 1
   21815    21061    21062 1
   21816    21061    21115 1
   21817    21061    21116 1
   21818    21062    21063 1
   21819    21062    21117 1
   21820    21062    21118 1
   21821    21063    21064 1
   21822    21063    21119 1
   21823    21063    21120 1
   21824    21064    21065 1
   21825    21064    21121 1
   21826    21064    21122 1
   21827    21065    21066 1
   21828    21065    21123 1
   21829    21065    21124 1
   21830    21066    21125 1
   21831    21066    21126 1
   21832    21066    21127 1
   21833    21067    21068 1
   21834    21067    21128 1
   21835    21067    21129 1
   21836    21068    21069 1
   21837    21069    21070 1
   21838    21069    21130 1
   21839    21069    21131 1
   21840    21070    21071 1
   21841    21070    21079 1
   21842    21070    21132 1
   21843    21071    21072 1
   21844    21071    21133 1
   21845    21071    21134 1
   21846    21072    21073 1
   21847    21072    21135 1
   21848    21072    21136 1
   21849    21073    21074 1
   21850    21073    21137 1
   21851    21073    21138 1
   21852    21074    21075 1
   21853    21074    21139 1
   21854    21074    21140 1
   21855    21075    21076 1
   21856    21075    21141 1
   21857    21075    21142 1
   21858    21076    21077 1
   21859    21076    21143 1
   21860    21076    21144 1
   21861    21077    21078 1
   21862    21077    21145 1
   21863    21077    21146 1
   21864    21078    21147 1
   21865    21078    21148 1
   21866    21078    21149 1
   21867    21079    21080 1
   21868    21079    21150 1
   21869    21079    21151 1
   21870    21080    21081 1
   21871    21080    21152 1
   21872    21080    21153 1
   21873    21081    21082 1
   21874    21081    21154 1
   21875    21081    21155 1
   21876    21082    21083 1
   21877    21082    21156 1
   21878    21082    21157 1
   21879    21083    21084 1
   21880    21083    21158 1
   21881    21083    21159 1
   21882    21084    21085 1
   21883    21084    21160 1
   21884    21084    21161 1
   21885    21085    21086 1
   21886    21085    21162 1
   21887    21085    21163 1
   21888    21086    21087 1
   21889    21086    21164 1
   21890    21086    21165 1
   21891    21087    21088 1
   21892    21087    21166 1
   21893    21087    21167 1
   21894    21088    21168 1
   21895    21088    21169 1
   21896    21088    21170 1
   21897    21171    21172 1
   21898    21171    21178 1
   21899    21171    21214 1
   21900    21172    21173 1
   21901    21172    21176 1
   21902    21173    21174 1
   21903    21173    21177 1
   21904    21174    21175 1
   21905    21175    21176 1
   21906    21175    21186 1
   21907    21176    21182 1
   21908    21177    21178 1
   21909    21177    21181 1
   21910    21178    21179 1
   21911    21179    21180 1
   21912    21179    21183 1
   21913    21180    21181 1
   21914    21184    21185 1
   21915    21184    21192 1
   21916    21185    21186 1
   21917    21185    21193 1
   21918    21186    21187 1
   21919    21187    21188 1
   21920    21187    21191 1
   21921    21188    21189 1
   21922    21189    21190 1
   21923    21190    21191 1
   21924    21191    21192 1
   21925    21192    21326 1
   21926    21194    21195 1
   21927    21194    21235 1
   21928    21194    21236 1
   21929    21194    21237 1
   21930    21195    21196 1
   21931    21195    21238 1
   21932    21195    21239 1
   21933    21196    21197 1
   21934    21196    21240 1
   21935    21196    21241 1
   21936    21197    21198 1
   21937    21197    21242 1
   21938    21197    21243 1
   21939    21198    21199 1
   21940    21198    21244 1
   21941    21198    21245 1
   21942    21199    21200 1
   21943    21199    21246 1
   21944    21199    21247 1
   21945    21200    21201 1
   21946    21200    21248 1
   21947    21200    21249 1
   21948    21201    21202 1
   21949    21201    21250 1
   21950    21201    21251 1
   21951    21202    21203 1
   21952    21202    21252 1
   21953    21202    21253 1
   21954    21203    21204 1
   21955    21203    21254 1
   21956    21203    21255 1
   21957    21204    21205 1
   21958    21204    21213 1
   21959    21204    21256 1
   21960    21205    21206 1
   21961    21205    21257 1
   21962    21205    21258 1
   21963    21206    21207 1
   21964    21206    21259 1
   21965    21206    21260 1
   21966    21207    21208 1
   21967    21207    21261 1
   21968    21207    21262 1
   21969    21208    21209 1
   21970    21208    21263 1
   21971    21208    21264 1
   21972    21209    21210 1
   21973    21209    21265 1
   21974    21209    21266 1
   21975    21210    21211 1
   21976    21210    21267 1
   21977    21210    21268 1
   21978    21211    21212 1
   21979    21211    21269 1
   21980    21211    21270 1
   21981    21212    21271 1
   21982    21212    21272 1
   21983    21212    21273 1
   21984    21213    21214 1
   21985    21213    21274 1
   21986    21213    21275 1
   21987    21214    21215 1
   21988    21215    21216 1
   21989    21215    21276 1
   21990    21215    21277 1
   21991    21216    21217 1
   21992    21216    21225 1
   21993    21216    21278 1
   21994    21217    21218 1
   21995    21217    21279 1
   21996    21217    21280 1
   21997    21218    21219 1
   21998    21218    21281 1
   21999    21218    21282 1
   22000    21219    21220 1
   22001    21219    21283 1
   22002    21219    21284 1
   22003    21220    21221 1
   22004    21220    21285 1
   22005    21220    21286 1
   22006    21221    21222 1
   22007    21221    21287 1
   22008    21221    21288 1
   22009    21222    21223 1
   22010    21222    21289 1
   22011    21222    21290 1
   22012    21223    21224 1
   22013    21223    21291 1
   22014    21223    21292 1
   22015    21224    21293 1
   22016    21224    21294 1
   22017    21224    21295 1
   22018    21225    21226 1
   22019    21225    21296 1
   22020    21225    21297 1
   22021    21226    21227 1
   22022    21226    21298 1
   22023    21226    21299 1
   22024    21227    21228 1
   22025    21227    21300 1
   22026    21227    21301 1
   22027    21228    21229 1
   22028    21228    21302 1
   22029    21228    21303 1
   22030    21229    21230 1
   22031    21229    21304 1
   22032    21229    21305 1
   22033    21230    21231 1
   22034    21230    21306 1
   22035    21230    21307 1
   22036    21231    21232 1
   22037    21231    21308 1
   22038    21231    21309 1
   22039    21232    21233 1
   22040    21232    21310 1
   22041    21232    21311 1
   22042    21233    21234 1
   22043    21233    21312 1
   22044    21233    21313 1
   22045    21234    21314 1
   22046    21234    21315 1
   22047    21234    21316 1
   22048    21317    21318 1
   22049    21317    21324 1
   22050    21317    21360 1
   22051    21318    21319 1
   22052    21318    21322 1
   22053    21319    21320 1
   22054    21319    21323 1
   22055    21320    21321 1
   22056    21321    21322 1
   22057    21321    21332 1
   22058    21322    21328 1
   22059    21323    21324 1
   22060    21323    21327 1
   22061    21324    21325 1
   22062    21325    21326 1
   22063    21325    21329 1
   22064    21326    21327 1
   22065    21330    21331 1
   22066    21330    21338 1
   22067    21331    21332 1
   22068    21331    21339 1
   22069    21332    21333 1
   22070    21333    21334 1
   22071    21333    21337 1
   22072    21334    21335 1
   22073    21335    21336 1
   22074    21336    21337 1
   22075    21337    21338 1
   22076    21338    21472 1
   22077    21340    21341 1
   22078    21340    21381 1
   22079    21340    21382 1
   22080    21340    21383 1
   22081    21341    21342 1
   22082    21341    21384 1
   22083    21341    21385 1
   22084    21342    21343 1
   22085    21342    21386 1
   22086    21342    21387 1
   22087    21343    21344 1
   22088    21343    21388 1
   22089    21343    21389 1
   22090    21344    21345 1
   22091    21344    21390 1
   22092    21344    21391 1
   22093    21345    21346 1
   22094    21345    21392 1
   22095    21345    21393 1
   22096    21346    21347 1
   22097    21346    21394 1
   22098    21346    21395 1
   22099    21347    21348 1
   22100    21347    21396 1
   22101    21347    21397 1
   22102    21348    21349 1
   22103    21348    21398 1
   22104    21348    21399 1
   22105    21349    21350 1
   22106    21349    21400 1
   22107    21349    21401 1
   22108    21350    21351 1
   22109    21350    21359 1
   22110    21350    21402 1
   22111    21351    21352 1
   22112    21351    21403 1
   22113    21351    21404 1
   22114    21352    21353 1
   22115    21352    21405 1
   22116    21352    21406 1
   22117    21353    21354 1
   22118    21353    21407 1
   22119    21353    21408 1
   22120    21354    21355 1
   22121    21354    21409 1
   22122    21354    21410 1
   22123    21355    21356 1
   22124    21355    21411 1
   22125    21355    21412 1
   22126    21356    21357 1
   22127    21356    21413 1
   22128    21356    21414 1
   22129    21357    21358 1
   22130    21357    21415 1
   22131    21357    21416 1
   22132    21358    21417 1
   22133    21358    21418 1
   22134    21358    21419 1
   22135    21359    21360 1
   22136    21359    21420 1
   22137    21359    21421 1
   22138    21360    21361 1
   22139    21361    21362 1
   22140    21361    21422 1
   22141    21361    21423 1
   22142    21362    21363 1
   22143    21362    21371 1
   22144    21362    21424 1
   22145    21363    21364 1
   22146    21363    21425 1
   22147    21363    21426 1
   22148    21364    21365 1
   22149    21364    21427 1
   22150    21364    21428 1
   22151    21365    21366 1
   22152    21365    21429 1
   22153    21365    21430 1
   22154    21366    21367 1
   22155    21366    21431 1
   22156    21366    21432 1
   22157    21367    21368 1
   22158    21367    21433 1
   22159    21367    21434 1
   22160    21368    21369 1
   22161    21368    21435 1
   22162    21368    21436 1
   22163    21369    21370 1
   22164    21369    21437 1
   22165    21369    21438 1
   22166    21370    21439 1
   22167    21370    21440 1
   22168    21370    21441 1
   22169    21371    21372 1
   22170    21371    21442 1
   22171    21371    21443 1
   22172    21372    21373 1
   22173    21372    21444 1
   22174    21372    21445 1
   22175    21373    21374 1
   22176    21373    21446 1
   22177    21373    21447 1
   22178    21374    21375 1
   22179    21374    21448 1
   22180    21374    21449 1
   22181    21375    21376 1
   22182    21375    21450 1
   22183    21375    21451 1
   22184    21376    21377 1
   22185    21376    21452 1
   22186    21376    21453 1
   22187    21377    21378 1
   22188    21377    21454 1
   22189    21377    21455 1
   22190    21378    21379 1
   22191    21378    21456 1
   22192    21378    21457 1
   22193    21379    21380 1
   22194    21379    21458 1
   22195    21379    21459 1
   22196    21380    21460 1
   22197    21380    21461 1
   22198    21380    21462 1
   22199    21463    21464 1
   22200    21463    21470 1
   22201    21463    21506 1
   22202    21464    21465 1
   22203    21464    21468 1
   22204    21465    21466 1
   22205    21465    21469 1
   22206    21466    21467 1
   22207    21467    21468 1
   22208    21467    21478 1
   22209    21468    21474 1
   22210    21469    21470 1
   22211    21469    21473 1
   22212    21470    21471 1
   22213    21471    21472 1
   22214    21471    21475 1
   22215    21472    21473 1
   22216    21476    21477 1
   22217    21476    21484 1
   22218    21477    21478 1
   22219    21477    21485 1
   22220    21478    21479 1
   22221    21479    21480 1
   22222    21479    21483 1
   22223    21480    21481 1
   22224    21481    21482 1
   22225    21482    21483 1
   22226    21483    21484 1
   22227    21484    21618 1
   22228    21486    21487 1
   22229    21486    21527 1
   22230    21486    21528 1
   22231    21486    21529 1
   22232    21487    21488 1
   22233    21487    21530 1
   22234    21487    21531 1
   22235    21488    21489 1
   22236    21488    21532 1
   22237    21488    21533 1
   22238    21489    21490 1
   22239    21489    21534 1
   22240    21489    21535 1
   22241    21490    21491 1
   22242    21490    21536 1
   22243    21490    21537 1
   22244    21491    21492 1
   22245    21491    21538 1
   22246    21491    21539 1
   22247    21492    21493 1
   22248    21492    21540 1
   22249    21492    21541 1
   22250    21493    21494 1
   22251    21493    21542 1
   22252    21493    21543 1
   22253    21494    21495 1
   22254    21494    21544 1
   22255    21494    21545 1
   22256    21495    21496 1
   22257    21495    21546 1
   22258    21495    21547 1
   22259    21496    21497 1
   22260    21496    21505 1
   22261    21496    21548 1
   22262    21497    21498 1
   22263    21497    21549 1
   22264    21497    21550 1
   22265    21498    21499 1
   22266    21498    21551 1
   22267    21498    21552 1
   22268    21499    21500 1
   22269    21499    21553 1
   22270    21499    21554 1
   22271    21500    21501 1
   22272    21500    21555 1
   22273    21500    21556 1
   22274    21501    21502 1
   22275    21501    21557 1
   22276    21501    21558 1
   22277    21502    21503 1
   22278    21502    21559 1
   22279    21502    21560 1
   22280    21503    21504 1
   22281    21503    21561 1
   22282    21503    21562 1
   22283    21504    21563 1
   22284    21504    21564 1
   22285    21504    21565 1
   22286    21505    21506 1
   22287    21505    21566 1
   22288    21505    21567 1
   22289    21506    21507 1
   22290    21507    21508 1
   22291    21507    21568 1
   22292    21507    21569 1
   22293    21508    21509 1
   22294    21508    21517 1
   22295    21508    21570 1
   22296    21509    21510 1
   22297    21509    21571 1
   22298    21509    21572 1
   22299    21510    21511 1
   22300    21510    21573 1
   22301    21510    21574 1
   22302    21511    21512 1
   22303    21511    21575 1
   22304    21511    21576 1
   22305    21512    21513 1
   22306    21512    21577 1
   22307    21512    21578 1
   22308    21513    21514 1
   22309    21513    21579 1
   22310    21513    21580 1
   22311    21514    21515 1
   22312    21514    21581 1
   22313    21514    21582 1
   22314    21515    21516 1
   22315    21515    21583 1
   22316    21515    21584 1
   22317    21516    21585 1
   22318    21516    21586 1
   22319    21516    21587 1
   22320    21517    21518 1
   22321    21517    21588 1
   22322    21517    21589 1
   22323    21518    21519 1
   22324    21518    21590 1
   22325    21518    21591 1
   22326    21519    21520 1
   22327    21519    21592 1
   22328    21519    21593 1
   22329    21520    21521 1
   22330    21520    21594 1
   22331    21520    21595 1
   22332    21521    21522 1
   22333    21521    21596 1
   22334    21521    21597 1
   22335    21522    21523 1
   22336    21522    21598 1
   22337    21522    21599 1
   22338    21523    21524 1
   22339    21523    21600 1
   22340    21523    21601 1
   22341    21524    21525 1
   22342    21524    21602 1
   22343    21524    21603 1
   22344    21525    21526 1
   22345    21525    21604 1
   22346    21525    21605 1
   22347    21526    21606 1
   22348    21526    21607 1
   22349    21526    21608 1
   22350    21609    21610 1
   22351    21609    21616 1
   22352    21609    21652 1
   22353    21610    21611 1
   22354    21610    21614 1
   22355    21611    21612 1
   22356    21611    21615 1
   22357    21612    21613 1
   22358    21613    21614 1
   22359    21613    21624 1
   22360    21614    21620 1
   22361    21615    21616 1
   22362    21615    21619 1
   22363    21616    21617 1
   22364    21617    21618 1
   22365    21617    21621 1
   22366    21618    21619 1
   22367    21622    21623 1
   22368    21622    21630 1
   22369    21623    21624 1
   22370    21623    21631 1
   22371    21624    21625 1
   22372    21625    21626 1
   22373    21625    21629 1
   22374    21626    21627 1
   22375    21627    21628 1
   22376    21628    21629 1
   22377    21629    21630 1
   22378    21630    21764 1
   22379    21632    21633 1
   22380    21632    21673 1
   22381    21632    21674 1
   22382    21632    21675 1
   22383    21633    21634 1
   22384    21633    21676 1
   22385    21633    21677 1
   22386    21634    21635 1
   22387    21634    21678 1
   22388    21634    21679 1
   22389    21635    21636 1
   22390    21635    21680 1
   22391    21635    21681 1
   22392    21636    21637 1
   22393    21636    21682 1
   22394    21636    21683 1
   22395    21637    21638 1
   22396    21637    21684 1
   22397    21637    21685 1
   22398    21638    21639 1
   22399    21638    21686 1
   22400    21638    21687 1
   22401    21639    21640 1
   22402    21639    21688 1
   22403    21639    21689 1
   22404    21640    21641 1
   22405    21640    21690 1
   22406    21640    21691 1
   22407    21641    21642 1
   22408    21641    21692 1
   22409    21641    21693 1
   22410    21642    21643 1
   22411    21642    21651 1
   22412    21642    21694 1
   22413    21643    21644 1
   22414    21643    21695 1
   22415    21643    21696 1
   22416    21644    21645 1
   22417    21644    21697 1
   22418    21644    21698 1
   22419    21645    21646 1
   22420    21645    21699 1
   22421    21645    21700 1
   22422    21646    21647 1
   22423    21646    21701 1
   22424    21646    21702 1
   22425    21647    21648 1
   22426    21647    21703 1
   22427    21647    21704 1
   22428    21648    21649 1
   22429    21648    21705 1
   22430    21648    21706 1
   22431    21649    21650 1
   22432    21649    21707 1
   22433    21649    21708 1
   22434    21650    21709 1
   22435    21650    21710 1
   22436    21650    21711 1
   22437    21651    21652 1
   22438    21651    21712 1
   22439    21651    21713 1
   22440    21652    21653 1
   22441    21653    21654 1
   22442    21653    21714 1
   22443    21653    21715 1
   22444    21654    21655 1
   22445    21654    21663 1
   22446    21654    21716 1
   22447    21655    21656 1
   22448    21655    21717 1
   22449    21655    21718 1
   22450    21656    21657 1
   22451    21656    21719 1
   22452    21656    21720 1
   22453    21657    21658 1
   22454    21657    21721 1
   22455    21657    21722 1
   22456    21658    21659 1
   22457    21658    21723 1
   22458    21658    21724 1
   22459    21659    21660 1
   22460    21659    21725 1
   22461    21659    21726 1
   22462    21660    21661 1
   22463    21660    21727 1
   22464    21660    21728 1
   22465    21661    21662 1
   22466    21661    21729 1
   22467    21661    21730 1
   22468    21662    21731 1
   22469    21662    21732 1
   22470    21662    21733 1
   22471    21663    21664 1
   22472    21663    21734 1
   22473    21663    21735 1
   22474    21664    21665 1
   22475    21664    21736 1
   22476    21664    21737 1
   22477    21665    21666 1
   22478    21665    21738 1
   22479    21665    21739 1
   22480    21666    21667 1
   22481    21666    21740 1
   22482    21666    21741 1
   22483    21667    21668 1
   22484    21667    21742 1
   22485    21667    21743 1
   22486    21668    21669 1
   22487    21668    21744 1
   22488    21668    21745 1
   22489    21669    21670 1
   22490    21669    21746 1
   22491    21669    21747 1
   22492    21670    21671 1
   22493    21670    21748 1
   22494    21670    21749 1
   22495    21671    21672 1
   22496    21671    21750 1
   22497    21671    21751 1
   22498    21672    21752 1
   22499    21672    21753 1
   22500    21672    21754 1
   22501    21755    21756 1
   22502    21755    21762 1
   22503    21755    21798 1
   22504    21756    21757 1
   22505    21756    21760 1
   22506    21757    21758 1
   22507    21757    21761 1
   22508    21758    21759 1
   22509    21759    21760 1
   22510    21759    21770 1
   22511    21760    21766 1
   22512    21761    21762 1
   22513    21761    21765 1
   22514    21762    21763 1
   22515    21763    21764 1
   22516    21763    21767 1
   22517    21764    21765 1
   22518    21768    21769 1
   22519    21768    21776 1
   22520    21769    21770 1
   22521    21769    21777 1
   22522    21770    21771 1
   22523    21771    21772 1
   22524    21771    21775 1
   22525    21772    21773 1
   22526    21773    21774 1
   22527    21774    21775 1
   22528    21775    21776 1
   22529    21776    21910 1
   22530    21778    21779 1
   22531    21778    21819 1
   22532    21778    21820 1
   22533    21778    21821 1
   22534    21779    21780 1
   22535    21779    21822 1
   22536    21779    21823 1
   22537    21780    21781 1
   22538    21780    21824 1
   22539    21780    21825 1
   22540    21781    21782 1
   22541    21781    21826 1
   22542    21781    21827 1
   22543    21782    21783 1
   22544    21782    21828 1
   22545    21782    21829 1
   22546    21783    21784 1
   22547    21783    21830 1
   22548    21783    21831 1
   22549    21784    21785 1
   22550    21784    21832 1
   22551    21784    21833 1
   22552    21785    21786 1
   22553    21785    21834 1
   22554    21785    21835 1
   22555    21786    21787 1
   22556    21786    21836 1
   22557    21786    21837 1
   22558    21787    21788 1
   22559    21787    21838 1
   22560    21787    21839 1
   22561    21788    21789 1
   22562    21788    21797 1
   22563    21788    21840 1
   22564    21789    21790 1
   22565    21789    21841 1
   22566    21789    21842 1
   22567    21790    21791 1
   22568    21790    21843 1
   22569    21790    21844 1
   22570    21791    21792 1
   22571    21791    21845 1
   22572    21791    21846 1
   22573    21792    21793 1
   22574    21792    21847 1
   22575    21792    21848 1
   22576    21793    21794 1
   22577    21793    21849 1
   22578    21793    21850 1
   22579    21794    21795 1
   22580    21794    21851 1
   22581    21794    21852 1
   22582    21795    21796 1
   22583    21795    21853 1
   22584    21795    21854 1
   22585    21796    21855 1
   22586    21796    21856 1
   22587    21796    21857 1
   22588    21797    21798 1
   22589    21797    21858 1
   22590    21797    21859 1
   22591    21798    21799 1
   22592    21799    21800 1
   22593    21799    21860 1
   22594    21799    21861 1
   22595    21800    21801 1
   22596    21800    21809 1
   22597    21800    21862 1
   22598    21801    21802 1
   22599    21801    21863 1
   22600    21801    21864 1
   22601    21802    21803 1
   22602    21802    21865 1
   22603    21802    21866 1
   22604    21803    21804 1
   22605    21803    21867 1
   22606    21803    21868 1
   22607    21804    21805 1
   22608    21804    21869 1
   22609    21804    21870 1
   22610    21805    21806 1
   22611    21805    21871 1
   22612    21805    21872 1
   22613    21806    21807 1
   22614    21806    21873 1
   22615    21806    21874 1
   22616    21807    21808 1
   22617    21807    21875 1
   22618    21807    21876 1
   22619    21808    21877 1
   22620    21808    21878 1
   22621    21808    21879 1
   22622    21809    21810 1
   22623    21809    21880 1
   22624    21809    21881 1
   22625    21810    21811 1
   22626    21810    21882 1
   22627    21810    21883 1
   22628    21811    21812 1
   22629    21811    21884 1
   22630    21811    21885 1
   22631    21812    21813 1
   22632    21812    21886 1
   22633    21812    21887 1
   22634    21813    21814 1
   22635    21813    21888 1
   22636    21813    21889 1
   22637    21814    21815 1
   22638    21814    21890 1
   22639    21814    21891 1
   22640    21815    21816 1
   22641    21815    21892 1
   22642    21815    21893 1
   22643    21816    21817 1
   22644    21816    21894 1
   22645    21816    21895 1
   22646    21817    21818 1
   22647    21817    21896 1
   22648    21817    21897 1
   22649    21818    21898 1
   22650    21818    21899 1
   22651    21818    21900 1
   22652    21901    21902 1
   22653    21901    21908 1
   22654    21901    21944 1
   22655    21902    21903 1
   22656    21902    21906 1
   22657    21903    21904 1
   22658    21903    21907 1
   22659    21904    21905 1
   22660    21905    21906 1
   22661    21905    21916 1
   22662    21906    21912 1
   22663    21907    21908 1
   22664    21907    21911 1
   22665    21908    21909 1
   22666    21909    21910 1
   22667    21909    21913 1
   22668    21910    21911 1
   22669    21914    21915 1
   22670    21914    21922 1
   22671    21915    21916 1
   22672    21915    21923 1
   22673    21916    21917 1
   22674    21917    21918 1
   22675    21917    21921 1
   22676    21918    21919 1
   22677    21919    21920 1
   22678    21920    21921 1
   22679    21921    21922 1
   22680    21922    22056 1
   22681    21924    21925 1
   22682    21924    21965 1
   22683    21924    21966 1
   22684    21924    21967 1
   22685    21925    21926 1
   22686    21925    21968 1
   22687    21925    21969 1
   22688    21926    21927 1
   22689    21926    21970 1
   22690    21926    21971 1
   22691    21927    21928 1
   22692    21927    21972 1
   22693    21927    21973 1
   22694    21928    21929 1
   22695    21928    21974 1
   22696    21928    21975 1
   22697    21929    21930 1
   22698    21929    21976 1
   22699    21929    21977 1
   22700    21930    21931 1
   22701    21930    21978 1
   22702    21930    21979 1
   22703    21931    21932 1
   22704    21931    21980 1
   22705    21931    21981 1
   22706    21932    21933 1
   22707    21932    21982 1
   22708    21932    21983 1
   22709    21933    21934 1
   22710    21933    21984 1
   22711    21933    21985 1
   22712    21934    21935 1
   22713    21934    21943 1
   22714    21934    21986 1
   22715    21935    21936 1
   22716    21935    21987 1
   22717    21935    21988 1
   22718    21936    21937 1
   22719    21936    21989 1
   22720    21936    21990 1
   22721    21937    21938 1
   22722    21937    21991 1
   22723    21937    21992 1
   22724    21938    21939 1
   22725    21938    21993 1
   22726    21938    21994 1
   22727    21939    21940 1
   22728    21939    21995 1
   22729    21939    21996 1
   22730    21940    21941 1
   22731    21940    21997 1
   22732    21940    21998 1
   22733    21941    21942 1
   22734    21941    21999 1
   22735    21941    22000 1
   22736    21942    22001 1
   22737    21942    22002 1
   22738    21942    22003 1
   22739    21943    21944 1
   22740    21943    22004 1
   22741    21943    22005 1
   22742    21944    21945 1
   22743    21945    21946 1
   22744    21945    22006 1
   22745    21945    22007 1
   22746    21946    21947 1
   22747    21946    21955 1
   22748    21946    22008 1
   22749    21947    21948 1
   22750    21947    22009 1
   22751    21947    22010 1
   22752    21948    21949 1
   22753    21948    22011 1
   22754    21948    22012 1
   22755    21949    21950 1
   22756    21949    22013 1
   22757    21949    22014 1
   22758    21950    21951 1
   22759    21950    22015 1
   22760    21950    22016 1
   22761    21951    21952 1
   22762    21951    22017 1
   22763    21951    22018 1
   22764    21952    21953 1
   22765    21952    22019 1
   22766    21952    22020 1
   22767    21953    21954 1
   22768    21953    22021 1
   22769    21953    22022 1
   22770    21954    22023 1
   22771    21954    22024 1
   22772    21954    22025 1
   22773    21955    21956 1
   22774    21955    22026 1
   22775    21955    22027 1
   22776    21956    21957 1
   22777    21956    22028 1
   22778    21956    22029 1
   22779    21957    21958 1
   22780    21957    22030 1
   22781    21957    22031 1
   22782    21958    21959 1
   22783    21958    22032 1
   22784    21958    22033 1
   22785    21959    21960 1
   22786    21959    22034 1
   22787    21959    22035 1
   22788    21960    21961 1
   22789    21960    22036 1
   22790    21960    22037 1
   22791    21961    21962 1
   22792    21961    22038 1
   22793    21961    22039 1
   22794    21962    21963 1
   22795    21962    22040 1
   22796    21962    22041 1
   22797    21963    21964 1
   22798    21963    22042 1
   22799    21963    22043 1
   22800    21964    22044 1
   22801    21964    22045 1
   22802    21964    22046 1
   22803    22047    22048 1
   22804    22047    22054 1
   22805    22047    22090 1
   22806    22048    22049 1
   22807    22048    22052 1
   22808    22049    22050 1
   22809    22049    22053 1
   22810    22050    22051 1
   22811    22051    22052 1
   22812    22051    22062 1
   22813    22052    22058 1
   22814    22053    22054 1
   22815    22053    22057 1
   22816    22054    22055 1
   22817    22055    22056 1
   22818    22055    22059 1
   22819    22056    22057 1
   22820    22060    22061 1
   22821    22060    22068 1
   22822    22061    22062 1
   22823    22061    22069 1
   22824    22062    22063 1
   22825    22063    22064 1
   22826    22063    22067 1
   22827    22064    22065 1
   22828    22065    22066 1
   22829    22066    22067 1
   22830    22067    22068 1
   22831    22068    22202 1
   22832    22070    22071 1
   22833    22070    22111 1
   22834    22070    22112 1
   22835    22070    22113 1
   22836    22071    22072 1
   22837    22071    22114 1
   22838    22071    22115 1
   22839    22072    22073 1
   22840    22072    22116 1
   22841    22072    22117 1
   22842    22073    22074 1
   22843    22073    22118 1
   22844    22073    22119 1
   22845    22074    22075 1
   22846    22074    22120 1
   22847    22074    22121 1
   22848    22075    22076 1
   22849    22075    22122 1
   22850    22075    22123 1
   22851    22076    22077 1
   22852    22076    22124 1
   22853    22076    22125 1
   22854    22077    22078 1
   22855    22077    22126 1
   22856    22077    22127 1
   22857    22078    22079 1
   22858    22078    22128 1
   22859    22078    22129 1
   22860    22079    22080 1
   22861    22079    22130 1
   22862    22079    22131 1
   22863    22080    22081 1
   22864    22080    22089 1
   22865    22080    22132 1
   22866    22081    22082 1
   22867    22081    22133 1
   22868    22081    22134 1
   22869    22082    22083 1
   22870    22082    22135 1
   22871    22082    22136 1
   22872    22083    22084 1
   22873    22083    22137 1
   22874    22083    22138 1
   22875    22084    22085 1
   22876    22084    22139 1
   22877    22084    22140 1
   22878    22085    22086 1
   22879    22085    22141 1
   22880    22085    22142 1
   22881    22086    22087 1
   22882    22086    22143 1
   22883    22086    22144 1
   22884    22087    22088 1
   22885    22087    22145 1
   22886    22087    22146 1
   22887    22088    22147 1
   22888    22088    22148 1
   22889    22088    22149 1
   22890    22089    22090 1
   22891    22089    22150 1
   22892    22089    22151 1
   22893    22090    22091 1
   22894    22091    22092 1
   22895    22091    22152 1
   22896    22091    22153 1
   22897    22092    22093 1
   22898    22092    22101 1
   22899    22092    22154 1
   22900    22093    22094 1
   22901    22093    22155 1
   22902    22093    22156 1
   22903    22094    22095 1
   22904    22094    22157 1
   22905    22094    22158 1
   22906    22095    22096 1
   22907    22095    22159 1
   22908    22095    22160 1
   22909    22096    22097 1
   22910    22096    22161 1
   22911    22096    22162 1
   22912    22097    22098 1
   22913    22097    22163 1
   22914    22097    22164 1
   22915    22098    22099 1
   22916    22098    22165 1
   22917    22098    22166 1
   22918    22099    22100 1
   22919    22099    22167 1
   22920    22099    22168 1
   22921    22100    22169 1
   22922    22100    22170 1
   22923    22100    22171 1
   22924    22101    22102 1
   22925    22101    22172 1
   22926    22101    22173 1
   22927    22102    22103 1
   22928    22102    22174 1
   22929    22102    22175 1
   22930    22103    22104 1
   22931    22103    22176 1
   22932    22103    22177 1
   22933    22104    22105 1
   22934    22104    22178 1
   22935    22104    22179 1
   22936    22105    22106 1
   22937    22105    22180 1
   22938    22105    22181 1
   22939    22106    22107 1
   22940    22106    22182 1
   22941    22106    22183 1
   22942    22107    22108 1
   22943    22107    22184 1
   22944    22107    22185 1
   22945    22108    22109 1
   22946    22108    22186 1
   22947    22108    22187 1
   22948    22109    22110 1
   22949    22109    22188 1
   22950    22109    22189 1
   22951    22110    22190 1
   22952    22110    22191 1
   22953    22110    22192 1
   22954    22193    22194 1
   22955    22193    22200 1
   22956    22193    22236 1
   22957    22194    22195 1
   22958    22194    22198 1
   22959    22195    22196 1
   22960    22195    22199 1
   22961    22196    22197 1
   22962    22197    22198 1
   22963    22197    22208 1
   22964    22198    22204 1
   22965    22199    22200 1
   22966    22199    22203 1
   22967    22200    22201 1
   22968    22201    22202 1
   22969    22201    22205 1
   22970    22202    22203 1
   22971    22206    22207 1
   22972    22206    22214 1
   22973    22207    22208 1
   22974    22207    22215 1
   22975    22208    22209 1
   22976    22209    22210 1
   22977    22209    22213 1
   22978    22210    22211 1
   22979    22211    22212 1
   22980    22212    22213 1
   22981    22213    22214 1
   22982    22214    22348 1
   22983    22216    22217 1
   22984    22216    22257 1
   22985    22216    22258 1
   22986    22216    22259 1
   22987    22217    22218 1
   22988    22217    22260 1
   22989    22217    22261 1
   22990    22218    22219 1
   22991    22218    22262 1
   22992    22218    22263 1
   22993    22219    22220 1
   22994    22219    22264 1
   22995    22219    22265 1
   22996    22220    22221 1
   22997    22220    22266 1
   22998    22220    22267 1
   22999    22221    22222 1
   23000    22221    22268 1
   23001    22221    22269 1
   23002    22222    22223 1
   23003    22222    22270 1
   23004    22222    22271 1
   23005    22223    22224 1
   23006    22223    22272 1
   23007    22223    22273 1
   23008    22224    22225 1
   23009    22224    22274 1
   23010    22224    22275 1
   23011    22225    22226 1
   23012    22225    22276 1
   23013    22225    22277 1
   23014    22226    22227 1
   23015    22226    22235 1
   23016    22226    22278 1
   23017    22227    22228 1
   23018    22227    22279 1
   23019    22227    22280 1
   23020    22228    22229 1
   23021    22228    22281 1
   23022    22228    22282 1
   23023    22229    22230 1
   23024    22229    22283 1
   23025    22229    22284 1
   23026    22230    22231 1
   23027    22230    22285 1
   23028    22230    22286 1
   23029    22231    22232 1
   23030    22231    22287 1
   23031    22231    22288 1
   23032    22232    22233 1
   23033    22232    22289 1
   23034    22232    22290 1
   23035    22233    22234 1
   23036    22233    22291 1
   23037    22233    22292 1
   23038    22234    22293 1
   23039    22234    22294 1
   23040    22234    22295 1
   23041    22235    22236 1
   23042    22235    22296 1
   23043    22235    22297 1
   23044    22236    22237 1
   23045    22237    22238 1
   23046    22237    22298 1
   23047    22237    22299 1
   23048    22238    22239 1
   23049    22238    22247 1
   23050    22238    22300 1
   23051    22239    22240 1
   23052    22239    22301 1
   23053    22239    22302 1
   23054    22240    22241 1
   23055    22240    22303 1
   23056    22240    22304 1
   23057    22241    22242 1
   23058    22241    22305 1
   23059    22241    22306 1
   23060    22242    22243 1
   23061    22242    22307 1
   23062    22242    22308 1
   23063    22243    22244 1
   23064    22243    22309 1
   23065    22243    22310 1
   23066    22244    22245 1
   23067    22244    22311 1
   23068    22244    22312 1
   23069    22245    22246 1
   23070    22245    22313 1
   23071    22245    22314 1
   23072    22246    22315 1
   23073    22246    22316 1
   23074    22246    22317 1
   23075    22247    22248 1
   23076    22247    22318 1
   23077    22247    22319 1
   23078    22248    22249 1
   23079    22248    22320 1
   23080    22248    22321 1
   23081    22249    22250 1
   23082    22249    22322 1
   23083    22249    22323 1
   23084    22250    22251 1
   23085    22250    22324 1
   23086    22250    22325 1
   23087    22251    22252 1
   23088    22251    22326 1
   23089    22251    22327 1
   23090    22252    22253 1
   23091    22252    22328 1
   23092    22252    22329 1
   23093    22253    22254 1
   23094    22253    22330 1
   23095    22253    22331 1
   23096    22254    22255 1
   23097    22254    22332 1
   23098    22254    22333 1
   23099    22255    22256 1
   23100    22255    22334 1
   23101    22255    22335 1
   23102    22256    22336 1
   23103    22256    22337 1
   23104    22256    22338 1
   23105    22339    22340 1
   23106    22339    22346 1
   23107    22339    22382 1
   23108    22340    22341 1
   23109    22340    22344 1
   23110    22341    22342 1
   23111    22341    22345 1
   23112    22342    22343 1
   23113    22343    22344 1
   23114    22343    22354 1
   23115    22344    22350 1
   23116    22345    22346 1
   23117    22345    22349 1
   23118    22346    22347 1
   23119    22347    22348 1
   23120    22347    22351 1
   23121    22348    22349 1
   23122    22352    22353 1
   23123    22352    22360 1
   23124    22353    22354 1
   23125    22353    22361 1
   23126    22354    22355 1
   23127    22355    22356 1
   23128    22355    22359 1
   23129    22356    22357 1
   23130    22357    22358 1
   23131    22358    22359 1
   23132    22359    22360 1
   23133    22360    22494 1
   23134    22362    22363 1
   23135    22362    22403 1
   23136    22362    22404 1
   23137    22362    22405 1
   23138    22363    22364 1
   23139    22363    22406 1
   23140    22363    22407 1
   23141    22364    22365 1
   23142    22364    22408 1
   23143    22364    22409 1
   23144    22365    22366 1
   23145    22365    22410 1
   23146    22365    22411 1
   23147    22366    22367 1
   23148    22366    22412 1
   23149    22366    22413 1
   23150    22367    22368 1
   23151    22367    22414 1
   23152    22367    22415 1
   23153    22368    22369 1
   23154    22368    22416 1
   23155    22368    22417 1
   23156    22369    22370 1
   23157    22369    22418 1
   23158    22369    22419 1
   23159    22370    22371 1
   23160    22370    22420 1
   23161    22370    22421 1
   23162    22371    22372 1
   23163    22371    22422 1
   23164    22371    22423 1
   23165    22372    22373 1
   23166    22372    22381 1
   23167    22372    22424 1
   23168    22373    22374 1
   23169    22373    22425 1
   23170    22373    22426 1
   23171    22374    22375 1
   23172    22374    22427 1
   23173    22374    22428 1
   23174    22375    22376 1
   23175    22375    22429 1
   23176    22375    22430 1
   23177    22376    22377 1
   23178    22376    22431 1
   23179    22376    22432 1
   23180    22377    22378 1
   23181    22377    22433 1
   23182    22377    22434 1
   23183    22378    22379 1
   23184    22378    22435 1
   23185    22378    22436 1
   23186    22379    22380 1
   23187    22379    22437 1
   23188    22379    22438 1
   23189    22380    22439 1
   23190    22380    22440 1
   23191    22380    22441 1
   23192    22381    22382 1
   23193    22381    22442 1
   23194    22381    22443 1
   23195    22382    22383 1
   23196    22383    22384 1
   23197    22383    22444 1
   23198    22383    22445 1
   23199    22384    22385 1
   23200    22384    22393 1
   23201    22384    22446 1
   23202    22385    22386 1
   23203    22385    22447 1
   23204    22385    22448 1
   23205    22386    22387 1
   23206    22386    22449 1
   23207    22386    22450 1
   23208    22387    22388 1
   23209    22387    22451 1
   23210    22387    22452 1
   23211    22388    22389 1
   23212    22388    22453 1
   23213    22388    22454 1
   23214    22389    22390 1
   23215    22389    22455 1
   23216    22389    22456 1
   23217    22390    22391 1
   23218    22390    22457 1
   23219    22390    22458 1
   23220    22391    22392 1
   23221    22391    22459 1
   23222    22391    22460 1
   23223    22392    22461 1
   23224    22392    22462 1
   23225    22392    22463 1
   23226    22393    22394 1
   23227    22393    22464 1
   23228    22393    22465 1
   23229    22394    22395 1
   23230    22394    22466 1
   23231    22394    22467 1
   23232    22395    22396 1
   23233    22395    22468 1
   23234    22395    22469 1
   23235    22396    22397 1
   23236    22396    22470 1
   23237    22396    22471 1
   23238    22397    22398 1
   23239    22397    22472 1
   23240    22397    22473 1
   23241    22398    22399 1
   23242    22398    22474 1
   23243    22398    22475 1
   23244    22399    22400 1
   23245    22399    22476 1
   23246    22399    22477 1
   23247    22400    22401 1
   23248    22400    22478 1
   23249    22400    22479 1
   23250    22401    22402 1
   23251    22401    22480 1
   23252    22401    22481 1
   23253    22402    22482 1
   23254    22402    22483 1
   23255    22402    22484 1
   23256    22485    22486 1
   23257    22485    22492 1
   23258    22485    22528 1
   23259    22486    22487 1
   23260    22486    22490 1
   23261    22487    22488 1
   23262    22487    22491 1
   23263    22488    22489 1
   23264    22489    22490 1
   23265    22489    22500 1
   23266    22490    22496 1
   23267    22491    22492 1
   23268    22491    22495 1
   23269    22492    22493 1
   23270    22493    22494 1
   23271    22493    22497 1
   23272    22494    22495 1
   23273    22498    22499 1
   23274    22498    22506 1
   23275    22499    22500 1
   23276    22499    22507 1
   23277    22500    22501 1
   23278    22501    22502 1
   23279    22501    22505 1
   23280    22502    22503 1
   23281    22503    22504 1
   23282    22504    22505 1
   23283    22505    22506 1
   23284    22506    22640 1
   23285    22508    22509 1
   23286    22508    22549 1
   23287    22508    22550 1
   23288    22508    22551 1
   23289    22509    22510 1
   23290    22509    22552 1
   23291    22509    22553 1
   23292    22510    22511 1
   23293    22510    22554 1
   23294    22510    22555 1
   23295    22511    22512 1
   23296    22511    22556 1
   23297    22511    22557 1
   23298    22512    22513 1
   23299    22512    22558 1
   23300    22512    22559 1
   23301    22513    22514 1
   23302    22513    22560 1
   23303    22513    22561 1
   23304    22514    22515 1
   23305    22514    22562 1
   23306    22514    22563 1
   23307    22515    22516 1
   23308    22515    22564 1
   23309    22515    22565 1
   23310    22516    22517 1
   23311    22516    22566 1
   23312    22516    22567 1
   23313    22517    22518 1
   23314    22517    22568 1
   23315    22517    22569 1
   23316    22518    22519 1
   23317    22518    22527 1
   23318    22518    22570 1
   23319    22519    22520 1
   23320    22519    22571 1
   23321    22519    22572 1
   23322    22520    22521 1
   23323    22520    22573 1
   23324    22520    22574 1
   23325    22521    22522 1
   23326    22521    22575 1
   23327    22521    22576 1
   23328    22522    22523 1
   23329    22522    22577 1
   23330    22522    22578 1
   23331    22523    22524 1
   23332    22523    22579 1
   23333    22523    22580 1
   23334    22524    22525 1
   23335    22524    22581 1
   23336    22524    22582 1
   23337    22525    22526 1
   23338    22525    22583 1
   23339    22525    22584 1
   23340    22526    22585 1
   23341    22526    22586 1
   23342    22526    22587 1
   23343    22527    22528 1
   23344    22527    22588 1
   23345    22527    22589 1
   23346    22528    22529 1
   23347    22529    22530 1
   23348    22529    22590 1
   23349    22529    22591 1
   23350    22530    22531 1
   23351    22530    22539 1
   23352    22530    22592 1
   23353    22531    22532 1
   23354    22531    22593 1
   23355    22531    22594 1
   23356    22532    22533 1
   23357    22532    22595 1
   23358    22532    22596 1
   23359    22533    22534 1
   23360    22533    22597 1
   23361    22533    22598 1
   23362    22534    22535 1
   23363    22534    22599 1
   23364    22534    22600 1
   23365    22535    22536 1
   23366    22535    22601 1
   23367    22535    22602 1
   23368    22536    22537 1
   23369    22536    22603 1
   23370    22536    22604 1
   23371    22537    22538 1
   23372    22537    22605 1
   23373    22537    22606 1
   23374    22538    22607 1
   23375    22538    22608 1
   23376    22538    22609 1
   23377    22539    22540 1
   23378    22539    22610 1
   23379    22539    22611 1
   23380    22540    22541 1
   23381    22540    22612 1
   23382    22540    22613 1
   23383    22541    22542 1
   23384    22541    22614 1
   23385    22541    22615 1
   23386    22542    22543 1
   23387    22542    22616 1
   23388    22542    22617 1
   23389    22543    22544 1
   23390    22543    22618 1
   23391    22543    22619 1
   23392    22544    22545 1
   23393    22544    22620 1
   23394    22544    22621 1
   23395    22545    22546 1
   23396    22545    22622 1
   23397    22545    22623 1
   23398    22546    22547 1
   23399    22546    22624 1
   23400    22546    22625 1
   23401    22547    22548 1
   23402    22547    22626 1
   23403    22547    22627 1
   23404    22548    22628 1
   23405    22548    22629 1
   23406    22548    22630 1
   23407    22631    22632 1
   23408    22631    22638 1
   23409    22631    22674 1
   23410    22632    22633 1
   23411    22632    22636 1
   23412    22633    22634 1
   23413    22633    22637 1
   23414    22634    22635 1
   23415    22635    22636 1
   23416    22635    22646 1
   23417    22636    22642 1
   23418    22637    22638 1
   23419    22637    22641 1
   23420    22638    22639 1
   23421    22639    22640 1
   23422    22639    22643 1
   23423    22640    22641 1
   23424    22644    22645 1
   23425    22644    22652 1
   23426    22645    22646 1
   23427    22645    22653 1
   23428    22646    22647 1
   23429    22647    22648 1
   23430    22647    22651 1
   23431    22648    22649 1
   23432    22649    22650 1
   23433    22650    22651 1
   23434    22651    22652 1
   23435    22652    22786 1
   23436    22654    22655 1
   23437    22654    22695 1
   23438    22654    22696 1
   23439    22654    22697 1
   23440    22655    22656 1
   23441    22655    22698 1
   23442    22655    22699 1
   23443    22656    22657 1
   23444    22656    22700 1
   23445    22656    22701 1
   23446    22657    22658 1
   23447    22657    22702 1
   23448    22657    22703 1
   23449    22658    22659 1
   23450    22658    22704 1
   23451    22658    22705 1
   23452    22659    22660 1
   23453    22659    22706 1
   23454    22659    22707 1
   23455    22660    22661 1
   23456    22660    22708 1
   23457    22660    22709 1
   23458    22661    22662 1
   23459    22661    22710 1
   23460    22661    22711 1
   23461    22662    22663 1
   23462    22662    22712 1
   23463    22662    22713 1
   23464    22663    22664 1
   23465    22663    22714 1
   23466    22663    22715 1
   23467    22664    22665 1
   23468    22664    22673 1
   23469    22664    22716 1
   23470    22665    22666 1
   23471    22665    22717 1
   23472    22665    22718 1
   23473    22666    22667 1
   23474    22666    22719 1
   23475    22666    22720 1
   23476    22667    22668 1
   23477    22667    22721 1
   23478    22667    22722 1
   23479    22668    22669 1
   23480    22668    22723 1
   23481    22668    22724 1
   23482    22669    22670 1
   23483    22669    22725 1
   23484    22669    22726 1
   23485    22670    22671 1
   23486    22670    22727 1
   23487    22670    22728 1
   23488    22671    22672 1
   23489    22671    22729 1
   23490    22671    22730 1
   23491    22672    22731 1
   23492    22672    22732 1
   23493    22672    22733 1
   23494    22673    22674 1
   23495    22673    22734 1
   23496    22673    22735 1
   23497    22674    22675 1
   23498    22675    22676 1
   23499    22675    22736 1
   23500    22675    22737 1
   23501    22676    22677 1
   23502    22676    22685 1
   23503    22676    22738 1
   23504    22677    22678 1
   23505    22677    22739 1
   23506    22677    22740 1
   23507    22678    22679 1
   23508    22678    22741 1
   23509    22678    22742 1
   23510    22679    22680 1
   23511    22679    22743 1
   23512    22679    22744 1
   23513    22680    22681 1
   23514    22680    22745 1
   23515    22680    22746 1
   23516    22681    22682 1
   23517    22681    22747 1
   23518    22681    22748 1
   23519    22682    22683 1
   23520    22682    22749 1
   23521    22682    22750 1
   23522    22683    22684 1
   23523    22683    22751 1
   23524    22683    22752 1
   23525    22684    22753 1
   23526    22684    22754 1
   23527    22684    22755 1
   23528    22685    22686 1
   23529    22685    22756 1
   23530    22685    22757 1
   23531    22686    22687 1
   23532    22686    22758 1
   23533    22686    22759 1
   23534    22687    22688 1
   23535    22687    22760 1
   23536    22687    22761 1
   23537    22688    22689 1
   23538    22688    22762 1
   23539    22688    22763 1
   23540    22689    22690 1
   23541    22689    22764 1
   23542    22689    22765 1
   23543    22690    22691 1
   23544    22690    22766 1
   23545    22690    22767 1
   23546    22691    22692 1
   23547    22691    22768 1
   23548    22691    22769 1
   23549    22692    22693 1
   23550    22692    22770 1
   23551    22692    22771 1
   23552    22693    22694 1
   23553    22693    22772 1
   23554    22693    22773 1
   23555    22694    22774 1
   23556    22694    22775 1
   23557    22694    22776 1
   23558    22777    22778 1
   23559    22777    22784 1
   23560    22777    22820 1
   23561    22778    22779 1
   23562    22778    22782 1
   23563    22779    22780 1
   23564    22779    22783 1
   23565    22780    22781 1
   23566    22781    22782 1
   23567    22781    22792 1
   23568    22782    22788 1
   23569    22783    22784 1
   23570    22783    22787 1
   23571    22784    22785 1
   23572    22785    22786 1
   23573    22785    22789 1
   23574    22786    22787 1
   23575    22790    22791 1
   23576    22790    22798 1
   23577    22791    22792 1
   23578    22791    22799 1
   23579    22792    22793 1
   23580    22793    22794 1
   23581    22793    22797 1
   23582    22794    22795 1
   23583    22795    22796 1
   23584    22796    22797 1
   23585    22797    22798 1
   23586    22798    22932 1
   23587    22800    22801 1
   23588    22800    22841 1
   23589    22800    22842 1
   23590    22800    22843 1
   23591    22801    22802 1
   23592    22801    22844 1
   23593    22801    22845 1
   23594    22802    22803 1
   23595    22802    22846 1
   23596    22802    22847 1
   23597    22803    22804 1
   23598    22803    22848 1
   23599    22803    22849 1
   23600    22804    22805 1
   23601    22804    22850 1
   23602    22804    22851 1
   23603    22805    22806 1
   23604    22805    22852 1
   23605    22805    22853 1
   23606    22806    22807 1
   23607    22806    22854 1
   23608    22806    22855 1
   23609    22807    22808 1
   23610    22807    22856 1
   23611    22807    22857 1
   23612    22808    22809 1
   23613    22808    22858 1
   23614    22808    22859 1
   23615    22809    22810 1
   23616    22809    22860 1
   23617    22809    22861 1
   23618    22810    22811 1
   23619    22810    22819 1
   23620    22810    22862 1
   23621    22811    22812 1
   23622    22811    22863 1
   23623    22811    22864 1
   23624    22812    22813 1
   23625    22812    22865 1
   23626    22812    22866 1
   23627    22813    22814 1
   23628    22813    22867 1
   23629    22813    22868 1
   23630    22814    22815 1
   23631    22814    22869 1
   23632    22814    22870 1
   23633    22815    22816 1
   23634    22815    22871 1
   23635    22815    22872 1
   23636    22816    22817 1
   23637    22816    22873 1
   23638    22816    22874 1
   23639    22817    22818 1
   23640    22817    22875 1
   23641    22817    22876 1
   23642    22818    22877 1
   23643    22818    22878 1
   23644    22818    22879 1
   23645    22819    22820 1
   23646    22819    22880 1
   23647    22819    22881 1
   23648    22820    22821 1
   23649    22821    22822 1
   23650    22821    22882 1
   23651    22821    22883 1
   23652    22822    22823 1
   23653    22822    22831 1
   23654    22822    22884 1
   23655    22823    22824 1
   23656    22823    22885 1
   23657    22823    22886 1
   23658    22824    22825 1
   23659    22824    22887 1
   23660    22824    22888 1
   23661    22825    22826 1
   23662    22825    22889 1
   23663    22825    22890 1
   23664    22826    22827 1
   23665    22826    22891 1
   23666    22826    22892 1
   23667    22827    22828 1
   23668    22827    22893 1
   23669    22827    22894 1
   23670    22828    22829 1
   23671    22828    22895 1
   23672    22828    22896 1
   23673    22829    22830 1
   23674    22829    22897 1
   23675    22829    22898 1
   23676    22830    22899 1
   23677    22830    22900 1
   23678    22830    22901 1
   23679    22831    22832 1
   23680    22831    22902 1
   23681    22831    22903 1
   23682    22832    22833 1
   23683    22832    22904 1
   23684    22832    22905 1
   23685    22833    22834 1
   23686    22833    22906 1
   23687    22833    22907 1
   23688    22834    22835 1
   23689    22834    22908 1
   23690    22834    22909 1
   23691    22835    22836 1
   23692    22835    22910 1
   23693    22835    22911 1
   23694    22836    22837 1
   23695    22836    22912 1
   23696    22836    22913 1
   23697    22837    22838 1
   23698    22837    22914 1
   23699    22837    22915 1
   23700    22838    22839 1
   23701    22838    22916 1
   23702    22838    22917 1
   23703    22839    22840 1
   23704    22839    22918 1
   23705    22839    22919 1
   23706    22840    22920 1
   23707    22840    22921 1
   23708    22840    22922 1
   23709    22923    22924 1
   23710    22923    22930 1
   23711    22923    22966 1
   23712    22924    22925 1
   23713    22924    22928 1
   23714    22925    22926 1
   23715    22925    22929 1
   23716    22926    22927 1
   23717    22927    22928 1
   23718    22927    22938 1
   23719    22928    22934 1
   23720    22929    22930 1
   23721    22929    22933 1
   23722    22930    22931 1
   23723    22931    22932 1
   23724    22931    22935 1
   23725    22932    22933 1
   23726    22936    22937 1
   23727    22936    22944 1
   23728    22937    22938 1
   23729    22937    22945 1
   23730    22938    22939 1
   23731    22939    22940 1
   23732    22939    22943 1
   23733    22940    22941 1
   23734    22941    22942 1
   23735    22942    22943 1
   23736    22943    22944 1
   23737    22944    23078 1
   23738    22946    22947 1
   23739    22946    22987 1
   23740    22946    22988 1
   23741    22946    22989 1
   23742    22947    22948 1
   23743    22947    22990 1
   23744    22947    22991 1
   23745    22948    22949 1
   23746    22948    22992 1
   23747    22948    22993 1
   23748    22949    22950 1
   23749    22949    22994 1
   23750    22949    22995 1
   23751    22950    22951 1
   23752    22950    22996 1
   23753    22950    22997 1
   23754    22951    22952 1
   23755    22951    22998 1
   23756    22951    22999 1
   23757    22952    22953 1
   23758    22952    23000 1
   23759    22952    23001 1
   23760    22953    22954 1
   23761    22953    23002 1
   23762    22953    23003 1
   23763    22954    22955 1
   23764    22954    23004 1
   23765    22954    23005 1
   23766    22955    22956 1
   23767    22955    23006 1
   23768    22955    23007 1
   23769    22956    22957 1
   23770    22956    22965 1
   23771    22956    23008 1
   23772    22957    22958 1
   23773    22957    23009 1
   23774    22957    23010 1
   23775    22958    22959 1
   23776    22958    23011 1
   23777    22958    23012 1
   23778    22959    22960 1
   23779    22959    23013 1
   23780    22959    23014 1
   23781    22960    22961 1
   23782    22960    23015 1
   23783    22960    23016 1
   23784    22961    22962 1
   23785    22961    23017 1
   23786    22961    23018 1
   23787    22962    22963 1
   23788    22962    23019 1
   23789    22962    23020 1
   23790    22963    22964 1
   23791    22963    23021 1
   23792    22963    23022 1
   23793    22964    23023 1
   23794    22964    23024 1
   23795    22964    23025 1
   23796    22965    22966 1
   23797    22965    23026 1
   23798    22965    23027 1
   23799    22966    22967 1
   23800    22967    22968 1
   23801    22967    23028 1
   23802    22967    23029 1
   23803    22968    22969 1
   23804    22968    22977 1
   23805    22968    23030 1
   23806    22969    22970 1
   23807    22969    23031 1
   23808    22969    23032 1
   23809    22970    22971 1
   23810    22970    23033 1
   23811    22970    23034 1
   23812    22971    22972 1
   23813    22971    23035 1
   23814    22971    23036 1
   23815    22972    22973 1
   23816    22972    23037 1
   23817    22972    23038 1
   23818    22973    22974 1
   23819    22973    23039 1
   23820    22973    23040 1
   23821    22974    22975 1
   23822    22974    23041 1
   23823    22974    23042 1
   23824    22975    22976 1
   23825    22975    23043 1
   23826    22975    23044 1
   23827    22976    23045 1
   23828    22976    23046 1
   23829    22976    23047 1
   23830    22977    22978 1
   23831    22977    23048 1
   23832    22977    23049 1
   23833    22978    22979 1
   23834    22978    23050 1
   23835    22978    23051 1
   23836    22979    22980 1
   23837    22979    23052 1
   23838    22979    23053 1
   23839    22980    22981 1
   23840    22980    23054 1
   23841    22980    23055 1
   23842    22981    22982 1
   23843    22981    23056 1
   23844    22981    23057 1
   23845    22982    22983 1
   23846    22982    23058 1
   23847    22982    23059 1
   23848    22983    22984 1
   23849    22983    23060 1
   23850    22983    23061 1
   23851    22984    22985 1
   23852    22984    23062 1
   23853    22984    23063 1
   23854    22985    22986 1
   23855    22985    23064 1
   23856    22985    23065 1
   23857    22986    23066 1
   23858    22986    23067 1
   23859    22986    23068 1
   23860    23069    23070 1
   23861    23069    23076 1
   23862    23069    23112 1
   23863    23070    23071 1
   23864    23070    23074 1
   23865    23071    23072 1
   23866    23071    23075 1
   23867    23072    23073 1
   23868    23073    23074 1
   23869    23073    23084 1
   23870    23074    23080 1
   23871    23075    23076 1
   23872    23075    23079 1
   23873    23076    23077 1
   23874    23077    23078 1
   23875    23077    23081 1
   23876    23078    23079 1
   23877    23082    23083 1
   23878    23082    23090 1
   23879    23083    23084 1
   23880    23083    23091 1
   23881    23084    23085 1
   23882    23085    23086 1
   23883    23085    23089 1
   23884    23086    23087 1
   23885    23087    23088 1
   23886    23088    23089 1
   23887    23089    23090 1
   23888    23090    23224 1
   23889    23092    23093 1
   23890    23092    23133 1
   23891    23092    23134 1
   23892    23092    23135 1
   23893    23093    23094 1
   23894    23093    23136 1
   23895    23093    23137 1
   23896    23094    23095 1
   23897    23094    23138 1
   23898    23094    23139 1
   23899    23095    23096 1
   23900    23095    23140 1
   23901    23095    23141 1
   23902    23096    23097 1
   23903    23096    23142 1
   23904    23096    23143 1
   23905    23097    23098 1
   23906    23097    23144 1
   23907    23097    23145 1
   23908    23098    23099 1
   23909    23098    23146 1
   23910    23098    23147 1
   23911    23099    23100 1
   23912    23099    23148 1
   23913    23099    23149 1
   23914    23100    23101 1
   23915    23100    23150 1
   23916    23100    23151 1
   23917    23101    23102 1
   23918    23101    23152 1
   23919    23101    23153 1
   23920    23102    23103 1
   23921    23102    23111 1
   23922    23102    23154 1
   23923    23103    23104 1
   23924    23103    23155 1
   23925    23103    23156 1
   23926    23104    23105 1
   23927    23104    23157 1
   23928    23104    23158 1
   23929    23105    23106 1
   23930    23105    23159 1
   23931    23105    23160 1
   23932    23106    23107 1
   23933    23106    23161 1
   23934    23106    23162 1
   23935    23107    23108 1
   23936    23107    23163 1
   23937    23107    23164 1
   23938    23108    23109 1
   23939    23108    23165 1
   23940    23108    23166 1
   23941    23109    23110 1
   23942    23109    23167 1
   23943    23109    23168 1
   23944    23110    23169 1
   23945    23110    23170 1
   23946    23110    23171 1
   23947    23111    23112 1
   23948    23111    23172 1
   23949    23111    23173 1
   23950    23112    23113 1
   23951    23113    23114 1
   23952    23113    23174 1
   23953    23113    23175 1
   23954    23114    23115 1
   23955    23114    23123 1
   23956    23114    23176 1
   23957    23115    23116 1
   23958    23115    23177 1
   23959    23115    23178 1
   23960    23116    23117 1
   23961    23116    23179 1
   23962    23116    23180 1
   23963    23117    23118 1
   23964    23117    23181 1
   23965    23117    23182 1
   23966    23118    23119 1
   23967    23118    23183 1
   23968    23118    23184 1
   23969    23119    23120 1
   23970    23119    23185 1
   23971    23119    23186 1
   23972    23120    23121 1
   23973    23120    23187 1
   23974    23120    23188 1
   23975    23121    23122 1
   23976    23121    23189 1
   23977    23121    23190 1
   23978    23122    23191 1
   23979    23122    23192 1
   23980    23122    23193 1
   23981    23123    23124 1
   23982    23123    23194 1
   23983    23123    23195 1
   23984    23124    23125 1
   23985    23124    23196 1
   23986    23124    23197 1
   23987    23125    23126 1
   23988    23125    23198 1
   23989    23125    23199 1
   23990    23126    23127 1
   23991    23126    23200 1
   23992    23126    23201 1
   23993    23127    23128 1
   23994    23127    23202 1
   23995    23127    23203 1
   23996    23128    23129 1
   23997    23128    23204 1
   23998    23128    23205 1
   23999    23129    23130 1
   24000    23129    23206 1
   24001    23129    23207 1
   24002    23130    23131 1
   24003    23130    23208 1
   24004    23130    23209 1
   24005    23131    23132 1
   24006    23131    23210 1
   24007    23131    23211 1
   24008    23132    23212 1
   24009    23132    23213 1
   24010    23132    23214 1
   24011    23215    23216 1
   24012    23215    23222 1
   24013    23215    23258 1
   24014    23216    23217 1
   24015    23216    23220 1
   24016    23217    23218 1
   24017    23217    23221 1
   24018    23218    23219 1
   24019    23219    23220 1
   24020    23219    23230 1
   24021    23220    23226 1
   24022    23221    23222 1
   24023    23221    23225 1
   24024    23222    23223 1
   24025    23223    23224 1
   24026    23223    23227 1
   24027    23224    23225 1
   24028    23228    23229 1
   24029    23228    23236 1
   24030    23229    23230 1
   24031    23229    23237 1
   24032    23230    23231 1
   24033    23231    23232 1
   24034    23231    23235 1
   24035    23232    23233 1
   24036    23233    23234 1
   24037    23234    23235 1
   24038    23235    23236 1
   24039    23236    23370 1
   24040    23238    23239 1
   24041    23238    23279 1
   24042    23238    23280 1
   24043    23238    23281 1
   24044    23239    23240 1
   24045    23239    23282 1
   24046    23239    23283 1
   24047    23240    23241 1
   24048    23240    23284 1
   24049    23240    23285 1
   24050    23241    23242 1
   24051    23241    23286 1
   24052    23241    23287 1
   24053    23242    23243 1
   24054    23242    23288 1
   24055    23242    23289 1
   24056    23243    23244 1
   24057    23243    23290 1
   24058    23243    23291 1
   24059    23244    23245 1
   24060    23244    23292 1
   24061    23244    23293 1
   24062    23245    23246 1
   24063    23245    23294 1
   24064    23245    23295 1
   24065    23246    23247 1
   24066    23246    23296 1
   24067    23246    23297 1
   24068    23247    23248 1
   24069    23247    23298 1
   24070    23247    23299 1
   24071    23248    23249 1
   24072    23248    23257 1
   24073    23248    23300 1
   24074    23249    23250 1
   24075    23249    23301 1
   24076    23249    23302 1
   24077    23250    23251 1
   24078    23250    23303 1
   24079    23250    23304 1
   24080    23251    23252 1
   24081    23251    23305 1
   24082    23251    23306 1
   24083    23252    23253 1
   24084    23252    23307 1
   24085    23252    23308 1
   24086    23253    23254 1
   24087    23253    23309 1
   24088    23253    23310 1
   24089    23254    23255 1
   24090    23254    23311 1
   24091    23254    23312 1
   24092    23255    23256 1
   24093    23255    23313 1
   24094    23255    23314 1
   24095    23256    23315 1
   24096    23256    23316 1
   24097    23256    23317 1
   24098    23257    23258 1
   24099    23257    23318 1
   24100    23257    23319 1
   24101    23258    23259 1
   24102    23259    23260 1
   24103    23259    23320 1
   24104    23259    23321 1
   24105    23260    23261 1
   24106    23260    23269 1
   24107    23260    23322 1
   24108    23261    23262 1
   24109    23261    23323 1
   24110    23261    23324 1
   24111    23262    23263 1
   24112    23262    23325 1
   24113    23262    23326 1
   24114    23263    23264 1
   24115    23263    23327 1
   24116    23263    23328 1
   24117    23264    23265 1
   24118    23264    23329 1
   24119    23264    23330 1
   24120    23265    23266 1
   24121    23265    23331 1
   24122    23265    23332 1
   24123    23266    23267 1
   24124    23266    23333 1
   24125    23266    23334 1
   24126    23267    23268 1
   24127    23267    23335 1
   24128    23267    23336 1
   24129    23268    23337 1
   24130    23268    23338 1
   24131    23268    23339 1
   24132    23269    23270 1
   24133    23269    23340 1
   24134    23269    23341 1
   24135    23270    23271 1
   24136    23270    23342 1
   24137    23270    23343 1
   24138    23271    23272 1
   24139    23271    23344 1
   24140    23271    23345 1
   24141    23272    23273 1
   24142    23272    23346 1
   24143    23272    23347 1
   24144    23273    23274 1
   24145    23273    23348 1
   24146    23273    23349 1
   24147    23274    23275 1
   24148    23274    23350 1
   24149    23274    23351 1
   24150    23275    23276 1
   24151    23275    23352 1
   24152    23275    23353 1
   24153    23276    23277 1
   24154    23276    23354 1
   24155    23276    23355 1
   24156    23277    23278 1
   24157    23277    23356 1
   24158    23277    23357 1
   24159    23278    23358 1
   24160    23278    23359 1
   24161    23278    23360 1
   24162    23361    23362 1
   24163    23361    23368 1
   24164    23361    23404 1
   24165    23362    23363 1
   24166    23362    23366 1
   24167    23363    23364 1
   24168    23363    23367 1
   24169    23364    23365 1
   24170    23365    23366 1
   24171    23365    23376 1
   24172    23366    23372 1
   24173    23367    23368 1
   24174    23367    23371 1
   24175    23368    23369 1
   24176    23369    23370 1
   24177    23369    23373 1
   24178    23370    23371 1
   24179    23374    23375 1
   24180    23374    23382 1
   24181    23375    23376 1
   24182    23375    23383 1
   24183    23376    23377 1
   24184    23377    23378 1
   24185    23377    23381 1
   24186    23378    23379 1
   24187    23379    23380 1
   24188    23380    23381 1
   24189    23381    23382 1
   24190    23382    23516 1
   24191    23384    23385 1
   24192    23384    23425 1
   24193    23384    23426 1
   24194    23384    23427 1
   24195    23385    23386 1
   24196    23385    23428 1
   24197    23385    23429 1
   24198    23386    23387 1
   24199    23386    23430 1
   24200    23386    23431 1
   24201    23387    23388 1
   24202    23387    23432 1
   24203    23387    23433 1
   24204    23388    23389 1
   24205    23388    23434 1
   24206    23388    23435 1
   24207    23389    23390 1
   24208    23389    23436 1
   24209    23389    23437 1
   24210    23390    23391 1
   24211    23390    23438 1
   24212    23390    23439 1
   24213    23391    23392 1
   24214    23391    23440 1
   24215    23391    23441 1
   24216    23392    23393 1
   24217    23392    23442 1
   24218    23392    23443 1
   24219    23393    23394 1
   24220    23393    23444 1
   24221    23393    23445 1
   24222    23394    23395 1
   24223    23394    23403 1
   24224    23394    23446 1
   24225    23395    23396 1
   24226    23395    23447 1
   24227    23395    23448 1
   24228    23396    23397 1
   24229    23396    23449 1
   24230    23396    23450 1
   24231    23397    23398 1
   24232    23397    23451 1
   24233    23397    23452 1
   24234    23398    23399 1
   24235    23398    23453 1
   24236    23398    23454 1
   24237    23399    23400 1
   24238    23399    23455 1
   24239    23399    23456 1
   24240    23400    23401 1
   24241    23400    23457 1
   24242    23400    23458 1
   24243    23401    23402 1
   24244    23401    23459 1
   24245    23401    23460 1
   24246    23402    23461 1
   24247    23402    23462 1
   24248    23402    23463 1
   24249    23403    23404 1
   24250    23403    23464 1
   24251    23403    23465 1
   24252    23404    23405 1
   24253    23405    23406 1
   24254    23405    23466 1
   24255    23405    23467 1
   24256    23406    23407 1
   24257    23406    23415 1
   24258    23406    23468 1
   24259    23407    23408 1
   24260    23407    23469 1
   24261    23407    23470 1
   24262    23408    23409 1
   24263    23408    23471 1
   24264    23408    23472 1
   24265    23409    23410 1
   24266    23409    23473 1
   24267    23409    23474 1
   24268    23410    23411 1
   24269    23410    23475 1
   24270    23410    23476 1
   24271    23411    23412 1
   24272    23411    23477 1
   24273    23411    23478 1
   24274    23412    23413 1
   24275    23412    23479 1
   24276    23412    23480 1
   24277    23413    23414 1
   24278    23413    23481 1
   24279    23413    23482 1
   24280    23414    23483 1
   24281    23414    23484 1
   24282    23414    23485 1
   24283    23415    23416 1
   24284    23415    23486 1
   24285    23415    23487 1
   24286    23416    23417 1
   24287    23416    23488 1
   24288    23416    23489 1
   24289    23417    23418 1
   24290    23417    23490 1
   24291    23417    23491 1
   24292    23418    23419 1
   24293    23418    23492 1
   24294    23418    23493 1
   24295    23419    23420 1
   24296    23419    23494 1
   24297    23419    23495 1
   24298    23420    23421 1
   24299    23420    23496 1
   24300    23420    23497 1
   24301    23421    23422 1
   24302    23421    23498 1
   24303    23421    23499 1
   24304    23422    23423 1
   24305    23422    23500 1
   24306    23422    23501 1
   24307    23423    23424 1
   24308    23423    23502 1
   24309    23423    23503 1
   24310    23424    23504 1
   24311    23424    23505 1
   24312    23424    23506 1
   24313    23507    23508 1
   24314    23507    23514 1
   24315    23507    23550 1
   24316    23508    23509 1
   24317    23508    23512 1
   24318    23509    23510 1
   24319    23509    23513 1
   24320    23510    23511 1
   24321    23511    23512 1
   24322    23511    23522 1
   24323    23512    23518 1
   24324    23513    23514 1
   24325    23513    23517 1
   24326    23514    23515 1
   24327    23515    23516 1
   24328    23515    23519 1
   24329    23516    23517 1
   24330    23520    23521 1
   24331    23520    23528 1
   24332    23521    23522 1
   24333    23521    23529 1
   24334    23522    23523 1
   24335    23523    23524 1
   24336    23523    23527 1
   24337    23524    23525 1
   24338    23525    23526 1
   24339    23526    23527 1
   24340    23527    23528 1
   24341    23528    23662 1
   24342    23530    23531 1
   24343    23530    23571 1
   24344    23530    23572 1
   24345    23530    23573 1
   24346    23531    23532 1
   24347    23531    23574 1
   24348    23531    23575 1
   24349    23532    23533 1
   24350    23532    23576 1
   24351    23532    23577 1
   24352    23533    23534 1
   24353    23533    23578 1
   24354    23533    23579 1
   24355    23534    23535 1
   24356    23534    23580 1
   24357    23534    23581 1
   24358    23535    23536 1
   24359    23535    23582 1
   24360    23535    23583 1
   24361    23536    23537 1
   24362    23536    23584 1
   24363    23536    23585 1
   24364    23537    23538 1
   24365    23537    23586 1
   24366    23537    23587 1
   24367    23538    23539 1
   24368    23538    23588 1
   24369    23538    23589 1
   24370    23539    23540 1
   24371    23539    23590 1
   24372    23539    23591 1
   24373    23540    23541 1
   24374    23540    23549 1
   24375    23540    23592 1
   24376    23541    23542 1
   24377    23541    23593 1
   24378    23541    23594 1
   24379    23542    23543 1
   24380    23542    23595 1
   24381    23542    23596 1
   24382    23543    23544 1
   24383    23543    23597 1
   24384    23543    23598 1
   24385    23544    23545 1
   24386    23544    23599 1
   24387    23544    23600 1
   24388    23545    23546 1
   24389    23545    23601 1
   24390    23545    23602 1
   24391    23546    23547 1
   24392    23546    23603 1
   24393    23546    23604 1
   24394    23547    23548 1
   24395    23547    23605 1
   24396    23547    23606 1
   24397    23548    23607 1
   24398    23548    23608 1
   24399    23548    23609 1
   24400    23549    23550 1
   24401    23549    23610 1
   24402    23549    23611 1
   24403    23550    23551 1
   24404    23551    23552 1
   24405    23551    23612 1
   24406    23551    23613 1
   24407    23552    23553 1
   24408    23552    23561 1
   24409    23552    23614 1
   24410    23553    23554 1
   24411    23553    23615 1
   24412    23553    23616 1
   24413    23554    23555 1
   24414    23554    23617 1
   24415    23554    23618 1
   24416    23555    23556 1
   24417    23555    23619 1
   24418    23555    23620 1
   24419    23556    23557 1
   24420    23556    23621 1
   24421    23556    23622 1
   24422    23557    23558 1
   24423    23557    23623 1
   24424    23557    23624 1
   24425    23558    23559 1
   24426    23558    23625 1
   24427    23558    23626 1
   24428    23559    23560 1
   24429    23559    23627 1
   24430    23559    23628 1
   24431    23560    23629 1
   24432    23560    23630 1
   24433    23560    23631 1
   24434    23561    23562 1
   24435    23561    23632 1
   24436    23561    23633 1
   24437    23562    23563 1
   24438    23562    23634 1
   24439    23562    23635 1
   24440    23563    23564 1
   24441    23563    23636 1
   24442    23563    23637 1
   24443    23564    23565 1
   24444    23564    23638 1
   24445    23564    23639 1
   24446    23565    23566 1
   24447    23565    23640 1
   24448    23565    23641 1
   24449    23566    23567 1
   24450    23566    23642 1
   24451    23566    23643 1
   24452    23567    23568 1
   24453    23567    23644 1
   24454    23567    23645 1
   24455    23568    23569 1
   24456    23568    23646 1
   24457    23568    23647 1
   24458    23569    23570 1
   24459    23569    23648 1
   24460    23569    23649 1
   24461    23570    23650 1
   24462    23570    23651 1
   24463    23570    23652 1
   24464    23653    23654 1
   24465    23653    23660 1
   24466    23653    23696 1
   24467    23654    23655 1
   24468    23654    23658 1
   24469    23655    23656 1
   24470    23655    23659 1
   24471    23656    23657 1
   24472    23657    23658 1
   24473    23657    23668 1
   24474    23658    23664 1
   24475    23659    23660 1
   24476    23659    23663 1
   24477    23660    23661 1
   24478    23661    23662 1
   24479    23661    23665 1
   24480    23662    23663 1
   24481    23666    23667 1
   24482    23666    23674 1
   24483    23667    23668 1
   24484    23667    23675 1
   24485    23668    23669 1
   24486    23669    23670 1
   24487    23669    23673 1
   24488    23670    23671 1
   24489    23671    23672 1
   24490    23672    23673 1
   24491    23673    23674 1
   24492    23674    23808 1
   24493    23676    23677 1
   24494    23676    23717 1
   24495    23676    23718 1
   24496    23676    23719 1
   24497    23677    23678 1
   24498    23677    23720 1
   24499    23677    23721 1
   24500    23678    23679 1
   24501    23678    23722 1
   24502    23678    23723 1
   24503    23679    23680 1
   24504    23679    23724 1
   24505    23679    23725 1
   24506    23680    23681 1
   24507    23680    23726 1
   24508    23680    23727 1
   24509    23681    23682 1
   24510    23681    23728 1
   24511    23681    23729 1
   24512    23682    23683 1
   24513    23682    23730 1
   24514    23682    23731 1
   24515    23683    23684 1
   24516    23683    23732 1
   24517    23683    23733 1
   24518    23684    23685 1
   24519    23684    23734 1
   24520    23684    23735 1
   24521    23685    23686 1
   24522    23685    23736 1
   24523    23685    23737 1
   24524    23686    23687 1
   24525    23686    23695 1
   24526    23686    23738 1
   24527    23687    23688 1
   24528    23687    23739 1
   24529    23687    23740 1
   24530    23688    23689 1
   24531    23688    23741 1
   24532    23688    23742 1
   24533    23689    23690 1
   24534    23689    23743 1
   24535    23689    23744 1
   24536    23690    23691 1
   24537    23690    23745 1
   24538    23690    23746 1
   24539    23691    23692 1
   24540    23691    23747 1
   24541    23691    23748 1
   24542    23692    23693 1
   24543    23692    23749 1
   24544    23692    23750 1
   24545    23693    23694 1
   24546    23693    23751 1
   24547    23693    23752 1
   24548    23694    23753 1
   24549    23694    23754 1
   24550    23694    23755 1
   24551    23695    23696 1
   24552    23695    23756 1
   24553    23695    23757 1
   24554    23696    23697 1
   24555    23697    23698 1
   24556    23697    23758 1
   24557    23697    23759 1
   24558    23698    23699 1
   24559    23698    23707 1
   24560    23698    23760 1
   24561    23699    23700 1
   24562    23699    23761 1
   24563    23699    23762 1
   24564    23700    23701 1
   24565    23700    23763 1
   24566    23700    23764 1
   24567    23701    23702 1
   24568    23701    23765 1
   24569    23701    23766 1
   24570    23702    23703 1
   24571    23702    23767 1
   24572    23702    23768 1
   24573    23703    23704 1
   24574    23703    23769 1
   24575    23703    23770 1
   24576    23704    23705 1
   24577    23704    23771 1
   24578    23704    23772 1
   24579    23705    23706 1
   24580    23705    23773 1
   24581    23705    23774 1
   24582    23706    23775 1
   24583    23706    23776 1
   24584    23706    23777 1
   24585    23707    23708 1
   24586    23707    23778 1
   24587    23707    23779 1
   24588    23708    23709 1
   24589    23708    23780 1
   24590    23708    23781 1
   24591    23709    23710 1
   24592    23709    23782 1
   24593    23709    23783 1
   24594    23710    23711 1
   24595    23710    23784 1
   24596    23710    23785 1
   24597    23711    23712 1
   24598    23711    23786 1
   24599    23711    23787 1
   24600    23712    23713 1
   24601    23712    23788 1
   24602    23712    23789 1
   24603    23713    23714 1
   24604    23713    23790 1
   24605    23713    23791 1
   24606    23714    23715 1
   24607    23714    23792 1
   24608    23714    23793 1
   24609    23715    23716 1
   24610    23715    23794 1
   24611    23715    23795 1
   24612    23716    23796 1
   24613    23716    23797 1
   24614    23716    23798 1
   24615    23799    23800 1
   24616    23799    23806 1
   24617    23799    23842 1
   24618    23800    23801 1
   24619    23800    23804 1
   24620    23801    23802 1
   24621    23801    23805 1
   24622    23802    23803 1
   24623    23803    23804 1
   24624    23803    23814 1
   24625    23804    23810 1
   24626    23805    23806 1
   24627    23805    23809 1
   24628    23806    23807 1
   24629    23807    23808 1
   24630    23807    23811 1
   24631    23808    23809 1
   24632    23812    23813 1
   24633    23812    23820 1
   24634    23813    23814 1
   24635    23813    23821 1
   24636    23814    23815 1
   24637    23815    23816 1
   24638    23815    23819 1
   24639    23816    23817 1
   24640    23817    23818 1
   24641    23818    23819 1
   24642    23819    23820 1
   24643    23820    23954 1
   24644    23822    23823 1
   24645    23822    23863 1
   24646    23822    23864 1
   24647    23822    23865 1
   24648    23823    23824 1
   24649    23823    23866 1
   24650    23823    23867 1
   24651    23824    23825 1
   24652    23824    23868 1
   24653    23824    23869 1
   24654    23825    23826 1
   24655    23825    23870 1
   24656    23825    23871 1
   24657    23826    23827 1
   24658    23826    23872 1
   24659    23826    23873 1
   24660    23827    23828 1
   24661    23827    23874 1
   24662    23827    23875 1
   24663    23828    23829 1
   24664    23828    23876 1
   24665    23828    23877 1
   24666    23829    23830 1
   24667    23829    23878 1
   24668    23829    23879 1
   24669    23830    23831 1
   24670    23830    23880 1
   24671    23830    23881 1
   24672    23831    23832 1
   24673    23831    23882 1
   24674    23831    23883 1
   24675    23832    23833 1
   24676    23832    23841 1
   24677    23832    23884 1
   24678    23833    23834 1
   24679    23833    23885 1
   24680    23833    23886 1
   24681    23834    23835 1
   24682    23834    23887 1
   24683    23834    23888 1
   24684    23835    23836 1
   24685    23835    23889 1
   24686    23835    23890 1
   24687    23836    23837 1
   24688    23836    23891 1
   24689    23836    23892 1
   24690    23837    23838 1
   24691    23837    23893 1
   24692    23837    23894 1
   24693    23838    23839 1
   24694    23838    23895 1
   24695    23838    23896 1
   24696    23839    23840 1
   24697    23839    23897 1
   24698    23839    23898 1
   24699    23840    23899 1
   24700    23840    23900 1
   24701    23840    23901 1
   24702    23841    23842 1
   24703    23841    23902 1
   24704    23841    23903 1
   24705    23842    23843 1
   24706    23843    23844 1
   24707    23843    23904 1
   24708    23843    23905 1
   24709    23844    23845 1
   24710    23844    23853 1
   24711    23844    23906 1
   24712    23845    23846 1
   24713    23845    23907 1
   24714    23845    23908 1
   24715    23846    23847 1
   24716    23846    23909 1
   24717    23846    23910 1
   24718    23847    23848 1
   24719    23847    23911 1
   24720    23847    23912 1
   24721    23848    23849 1
   24722    23848    23913 1
   24723    23848    23914 1
   24724    23849    23850 1
   24725    23849    23915 1
   24726    23849    23916 1
   24727    23850    23851 1
   24728    23850    23917 1
   24729    23850    23918 1
   24730    23851    23852 1
   24731    23851    23919 1
   24732    23851    23920 1
   24733    23852    23921 1
   24734    23852    23922 1
   24735    23852    23923 1
   24736    23853    23854 1
   24737    23853    23924 1
   24738    23853    23925 1
   24739    23854    23855 1
   24740    23854    23926 1
   24741    23854    23927 1
   24742    23855    23856 1
   24743    23855    23928 1
   24744    23855    23929 1
   24745    23856    23857 1
   24746    23856    23930 1
   24747    23856    23931 1
   24748    23857    23858 1
   24749    23857    23932 1
   24750    23857    23933 1
   24751    23858    23859 1
   24752    23858    23934 1
   24753    23858    23935 1
   24754    23859    23860 1
   24755    23859    23936 1
   24756    23859    23937 1
   24757    23860    23861 1
   24758    23860    23938 1
   24759    23860    23939 1
   24760    23861    23862 1
   24761    23861    23940 1
   24762    23861    23941 1
   24763    23862    23942 1
   24764    23862    23943 1
   24765    23862    23944 1
   24766    23945    23946 1
   24767    23945    23952 1
   24768    23945    23988 1
   24769    23946    23947 1
   24770    23946    23950 1
   24771    23947    23948 1
   24772    23947    23951 1
   24773    23948    23949 1
   24774    23949    23950 1
   24775    23949    23960 1
   24776    23950    23956 1
   24777    23951    23952 1
   24778    23951    23955 1
   24779    23952    23953 1
   24780    23953    23954 1
   24781    23953    23957 1
   24782    23954    23955 1
   24783    23958    23959 1
   24784    23958    23966 1
   24785    23959    23960 1
   24786    23959    23967 1
   24787    23960    23961 1
   24788    23961    23962 1
   24789    23961    23965 1
   24790    23962    23963 1
   24791    23963    23964 1
   24792    23964    23965 1
   24793    23965    23966 1
   24794    23966    24100 1
   24795    23968    23969 1
   24796    23968    24009 1
   24797    23968    24010 1
   24798    23968    24011 1
   24799    23969    23970 1
   24800    23969    24012 1
   24801    23969    24013 1
   24802    23970    23971 1
   24803    23970    24014 1
   24804    23970    24015 1
   24805    23971    23972 1
   24806    23971    24016 1
   24807    23971    24017 1
   24808    23972    23973 1
   24809    23972    24018 1
   24810    23972    24019 1
   24811    23973    23974 1
   24812    23973    24020 1
   24813    23973    24021 1
   24814    23974    23975 1
   24815    23974    24022 1
   24816    23974    24023 1
   24817    23975    23976 1
   24818    23975    24024 1
   24819    23975    24025 1
   24820    23976    23977 1
   24821    23976    24026 1
   24822    23976    24027 1
   24823    23977    23978 1
   24824    23977    24028 1
   24825    23977    24029 1
   24826    23978    23979 1
   24827    23978    23987 1
   24828    23978    24030 1
   24829    23979    23980 1
   24830    23979    24031 1
   24831    23979    24032 1
   24832    23980    23981 1
   24833    23980    24033 1
   24834    23980    24034 1
   24835    23981    23982 1
   24836    23981    24035 1
   24837    23981    24036 1
   24838    23982    23983 1
   24839    23982    24037 1
   24840    23982    24038 1
   24841    23983    23984 1
   24842    23983    24039 1
   24843    23983    24040 1
   24844    23984    23985 1
   24845    23984    24041 1
   24846    23984    24042 1
   24847    23985    23986 1
   24848    23985    24043 1
   24849    23985    24044 1
   24850    23986    24045 1
   24851    23986    24046 1
   24852    23986    24047 1
   24853    23987    23988 1
   24854    23987    24048 1
   24855    23987    24049 1
   24856    23988    23989 1
   24857    23989    23990 1
   24858    23989    24050 1
   24859    23989    24051 1
   24860    23990    23991 1
   24861    23990    23999 1
   24862    23990    24052 1
   24863    23991    23992 1
   24864    23991    24053 1
   24865    23991    24054 1
   24866    23992    23993 1
   24867    23992    24055 1
   24868    23992    24056 1
   24869    23993    23994 1
   24870    23993    24057 1
   24871    23993    24058 1
   24872    23994    23995 1
   24873    23994    24059 1
   24874    23994    24060 1
   24875    23995    23996 1
   24876    23995    24061 1
   24877    23995    24062 1
   24878    23996    23997 1
   24879    23996    24063 1
   24880    23996    24064 1
   24881    23997    23998 1
   24882    23997    24065 1
   24883    23997    24066 1
   24884    23998    24067 1
   24885    23998    24068 1
   24886    23998    24069 1
   24887    23999    24000 1
   24888    23999    24070 1
   24889    23999    24071 1
   24890    24000    24001 1
   24891    24000    24072 1
   24892    24000    24073 1
   24893    24001    24002 1
   24894    24001    24074 1
   24895    24001    24075 1
   24896    24002    24003 1
   24897    24002    24076 1
   24898    24002    24077 1
   24899    24003    24004 1
   24900    24003    24078 1
   24901    24003    24079 1
   24902    24004    24005 1
   24903    24004    24080 1
   24904    24004    24081 1
   24905    24005    24006 1
   24906    24005    24082 1
   24907    24005    24083 1
   24908    24006    24007 1
   24909    24006    24084 1
   24910    24006    24085 1
   24911    24007    24008 1
   24912    24007    24086 1
   24913    24007    24087 1
   24914    24008    24088 1
   24915    24008    24089 1
   24916    24008    24090 1
   24917    24091    24092 1
   24918    24091    24098 1
   24919    24091    24134 1
   24920    24092    24093 1
   24921    24092    24096 1
   24922    24093    24094 1
   24923    24093    24097 1
   24924    24094    24095 1
   24925    24095    24096 1
   24926    24095    24106 1
   24927    24096    24102 1
   24928    24097    24098 1
   24929    24097    24101 1
   24930    24098    24099 1
   24931    24099    24100 1
   24932    24099    24103 1
   24933    24100    24101 1
   24934    24104    24105 1
   24935    24104    24112 1
   24936    24105    24106 1
   24937    24105    24113 1
   24938    24106    24107 1
   24939    24107    24108 1
   24940    24107    24111 1
   24941    24108    24109 1
   24942    24109    24110 1
   24943    24110    24111 1
   24944    24111    24112 1
   24945    24112    24246 1
   24946    24114    24115 1
   24947    24114    24155 1
   24948    24114    24156 1
   24949    24114    24157 1
   24950    24115    24116 1
   24951    24115    24158 1
   24952    24115    24159 1
   24953    24116    24117 1
   24954    24116    24160 1
   24955    24116    24161 1
   24956    24117    24118 1
   24957    24117    24162 1
   24958    24117    24163 1
   24959    24118    24119 1
   24960    24118    24164 1
   24961    24118    24165 1
   24962    24119    24120 1
   24963    24119    24166 1
   24964    24119    24167 1
   24965    24120    24121 1
   24966    24120    24168 1
   24967    24120    24169 1
   24968    24121    24122 1
   24969    24121    24170 1
   24970    24121    24171 1
   24971    24122    24123 1
   24972    24122    24172 1
   24973    24122    24173 1
   24974    24123    24124 1
   24975    24123    24174 1
   24976    24123    24175 1
   24977    24124    24125 1
   24978    24124    24133 1
   24979    24124    24176 1
   24980    24125    24126 1
   24981    24125    24177 1
   24982    24125    24178 1
   24983    24126    24127 1
   24984    24126    24179 1
   24985    24126    24180 1
   24986    24127    24128 1
   24987    24127    24181 1
   24988    24127    24182 1
   24989    24128    24129 1
   24990    24128    24183 1
   24991    24128    24184 1
   24992    24129    24130 1
   24993    24129    24185 1
   24994    24129    24186 1
   24995    24130    24131 1
   24996    24130    24187 1
   24997    24130    24188 1
   24998    24131    24132 1
   24999    24131    24189 1
   25000    24131    24190 1
   25001    24132    24191 1
   25002    24132    24192 1
   25003    24132    24193 1
   25004    24133    24134 1
   25005    24133    24194 1
   25006    24133    24195 1
   25007    24134    24135 1
   25008    24135    24136 1
   25009    24135    24196 1
   25010    24135    24197 1
   25011    24136    24137 1
   25012    24136    24145 1
   25013    24136    24198 1
   25014    24137    24138 1
   25015    24137    24199 1
   25016    24137    24200 1
   25017    24138    24139 1
   25018    24138    24201 1
   25019    24138    24202 1
   25020    24139    24140 1
   25021    24139    24203 1
   25022    24139    24204 1
   25023    24140    24141 1
   25024    24140    24205 1
   25025    24140    24206 1
   25026    24141    24142 1
   25027    24141    24207 1
   25028    24141    24208 1
   25029    24142    24143 1
   25030    24142    24209 1
   25031    24142    24210 1
   25032    24143    24144 1
   25033    24143    24211 1
   25034    24143    24212 1
   25035    24144    24213 1
   25036    24144    24214 1
   25037    24144    24215 1
   25038    24145    24146 1
   25039    24145    24216 1
   25040    24145    24217 1
   25041    24146    24147 1
   25042    24146    24218 1
   25043    24146    24219 1
   25044    24147    24148 1
   25045    24147    24220 1
   25046    24147    24221 1
   25047    24148    24149 1
   25048    24148    24222 1
   25049    24148    24223 1
   25050    24149    24150 1
   25051    24149    24224 1
   25052    24149    24225 1
   25053    24150    24151 1
   25054    24150    24226 1
   25055    24150    24227 1
   25056    24151    24152 1
   25057    24151    24228 1
   25058    24151    24229 1
   25059    24152    24153 1
   25060    24152    24230 1
   25061    24152    24231 1
   25062    24153    24154 1
   25063    24153    24232 1
   25064    24153    24233 1
   25065    24154    24234 1
   25066    24154    24235 1
   25067    24154    24236 1
   25068    24237    24238 1
   25069    24237    24244 1
   25070    24237    24280 1
   25071    24238    24239 1
   25072    24238    24242 1
   25073    24239    24240 1
   25074    24239    24243 1
   25075    24240    24241 1
   25076    24241    24242 1
   25077    24241    24252 1
   25078    24242    24248 1
   25079    24243    24244 1
   25080    24243    24247 1
   25081    24244    24245 1
   25082    24245    24246 1
   25083    24245    24249 1
   25084    24246    24247 1
   25085    24250    24251 1
   25086    24250    24258 1
   25087    24251    24252 1
   25088    24251    24259 1
   25089    24252    24253 1
   25090    24253    24254 1
   25091    24253    24257 1
   25092    24254    24255 1
   25093    24255    24256 1
   25094    24256    24257 1
   25095    24257    24258 1
   25096    24258    24392 1
   25097    24260    24261 1
   25098    24260    24301 1
   25099    24260    24302 1
   25100    24260    24303 1
   25101    24261    24262 1
   25102    24261    24304 1
   25103    24261    24305 1
   25104    24262    24263 1
   25105    24262    24306 1
   25106    24262    24307 1
   25107    24263    24264 1
   25108    24263    24308 1
   25109    24263    24309 1
   25110    24264    24265 1
   25111    24264    24310 1
   25112    24264    24311 1
   25113    24265    24266 1
   25114    24265    24312 1
   25115    24265    24313 1
   25116    24266    24267 1
   25117    24266    24314 1
   25118    24266    24315 1
   25119    24267    24268 1
   25120    24267    24316 1
   25121    24267    24317 1
   25122    24268    24269 1
   25123    24268    24318 1
   25124    24268    24319 1
   25125    24269    24270 1
   25126    24269    24320 1
   25127    24269    24321 1
   25128    24270    24271 1
   25129    24270    24279 1
   25130    24270    24322 1
   25131    24271    24272 1
   25132    24271    24323 1
   25133    24271    24324 1
   25134    24272    24273 1
   25135    24272    24325 1
   25136    24272    24326 1
   25137    24273    24274 1
   25138    24273    24327 1
   25139    24273    24328 1
   25140    24274    24275 1
   25141    24274    24329 1
   25142    24274    24330 1
   25143    24275    24276 1
   25144    24275    24331 1
   25145    24275    24332 1
   25146    24276    24277 1
   25147    24276    24333 1
   25148    24276    24334 1
   25149    24277    24278 1
   25150    24277    24335 1
   25151    24277    24336 1
   25152    24278    24337 1
   25153    24278    24338 1
   25154    24278    24339 1
   25155    24279    24280 1
   25156    24279    24340 1
   25157    24279    24341 1
   25158    24280    24281 1
   25159    24281    24282 1
   25160    24281    24342 1
   25161    24281    24343 1
   25162    24282    24283 1
   25163    24282    24291 1
   25164    24282    24344 1
   25165    24283    24284 1
   25166    24283    24345 1
   25167    24283    24346 1
   25168    24284    24285 1
   25169    24284    24347 1
   25170    24284    24348 1
   25171    24285    24286 1
   25172    24285    24349 1
   25173    24285    24350 1
   25174    24286    24287 1
   25175    24286    24351 1
   25176    24286    24352 1
   25177    24287    24288 1
   25178    24287    24353 1
   25179    24287    24354 1
   25180    24288    24289 1
   25181    24288    24355 1
   25182    24288    24356 1
   25183    24289    24290 1
   25184    24289    24357 1
   25185    24289    24358 1
   25186    24290    24359 1
   25187    24290    24360 1
   25188    24290    24361 1
   25189    24291    24292 1
   25190    24291    24362 1
   25191    24291    24363 1
   25192    24292    24293 1
   25193    24292    24364 1
   25194    24292    24365 1
   25195    24293    24294 1
   25196    24293    24366 1
   25197    24293    24367 1
   25198    24294    24295 1
   25199    24294    24368 1
   25200    24294    24369 1
   25201    24295    24296 1
   25202    24295    24370 1
   25203    24295    24371 1
   25204    24296    24297 1
   25205    24296    24372 1
   25206    24296    24373 1
   25207    24297    24298 1
   25208    24297    24374 1
   25209    24297    24375 1
   25210    24298    24299 1
   25211    24298    24376 1
   25212    24298    24377 1
   25213    24299    24300 1
   25214    24299    24378 1
   25215    24299    24379 1
   25216    24300    24380 1
   25217    24300    24381 1
   25218    24300    24382 1
   25219    24383    24384 1
   25220    24383    24390 1
   25221    24383    24426 1
   25222    24384    24385 1
   25223    24384    24388 1
   25224    24385    24386 1
   25225    24385    24389 1
   25226    24386    24387 1
   25227    24387    24388 1
   25228    24387    24398 1
   25229    24388    24394 1
   25230    24389    24390 1
   25231    24389    24393 1
   25232    24390    24391 1
   25233    24391    24392 1
   25234    24391    24395 1
   25235    24392    24393 1
   25236    24396    24397 1
   25237    24396    24404 1
   25238    24397    24398 1
   25239    24397    24405 1
   25240    24398    24399 1
   25241    24399    24400 1
   25242    24399    24403 1
   25243    24400    24401 1
   25244    24401    24402 1
   25245    24402    24403 1
   25246    24403    24404 1
   25247    24404    24538 1
   25248    24406    24407 1
   25249    24406    24447 1
   25250    24406    24448 1
   25251    24406    24449 1
   25252    24407    24408 1
   25253    24407    24450 1
   25254    24407    24451 1
   25255    24408    24409 1
   25256    24408    24452 1
   25257    24408    24453 1
   25258    24409    24410 1
   25259    24409    24454 1
   25260    24409    24455 1
   25261    24410    24411 1
   25262    24410    24456 1
   25263    24410    24457 1
   25264    24411    24412 1
   25265    24411    24458 1
   25266    24411    24459 1
   25267    24412    24413 1
   25268    24412    24460 1
   25269    24412    24461 1
   25270    24413    24414 1
   25271    24413    24462 1
   25272    24413    24463 1
   25273    24414    24415 1
   25274    24414    24464 1
   25275    24414    24465 1
   25276    24415    24416 1
   25277    24415    24466 1
   25278    24415    24467 1
   25279    24416    24417 1
   25280    24416    24425 1
   25281    24416    24468 1
   25282    24417    24418 1
   25283    24417    24469 1
   25284    24417    24470 1
   25285    24418    24419 1
   25286    24418    24471 1
   25287    24418    24472 1
   25288    24419    24420 1
   25289    24419    24473 1
   25290    24419    24474 1
   25291    24420    24421 1
   25292    24420    24475 1
   25293    24420    24476 1
   25294    24421    24422 1
   25295    24421    24477 1
   25296    24421    24478 1
   25297    24422    24423 1
   25298    24422    24479 1
   25299    24422    24480 1
   25300    24423    24424 1
   25301    24423    24481 1
   25302    24423    24482 1
   25303    24424    24483 1
   25304    24424    24484 1
   25305    24424    24485 1
   25306    24425    24426 1
   25307    24425    24486 1
   25308    24425    24487 1
   25309    24426    24427 1
   25310    24427    24428 1
   25311    24427    24488 1
   25312    24427    24489 1
   25313    24428    24429 1
   25314    24428    24437 1
   25315    24428    24490 1
   25316    24429    24430 1
   25317    24429    24491 1
   25318    24429    24492 1
   25319    24430    24431 1
   25320    24430    24493 1
   25321    24430    24494 1
   25322    24431    24432 1
   25323    24431    24495 1
   25324    24431    24496 1
   25325    24432    24433 1
   25326    24432    24497 1
   25327    24432    24498 1
   25328    24433    24434 1
   25329    24433    24499 1
   25330    24433    24500 1
   25331    24434    24435 1
   25332    24434    24501 1
   25333    24434    24502 1
   25334    24435    24436 1
   25335    24435    24503 1
   25336    24435    24504 1
   25337    24436    24505 1
   25338    24436    24506 1
   25339    24436    24507 1
   25340    24437    24438 1
   25341    24437    24508 1
   25342    24437    24509 1
   25343    24438    24439 1
   25344    24438    24510 1
   25345    24438    24511 1
   25346    24439    24440 1
   25347    24439    24512 1
   25348    24439    24513 1
   25349    24440    24441 1
   25350    24440    24514 1
   25351    24440    24515 1
   25352    24441    24442 1
   25353    24441    24516 1
   25354    24441    24517 1
   25355    24442    24443 1
   25356    24442    24518 1
   25357    24442    24519 1
   25358    24443    24444 1
   25359    24443    24520 1
   25360    24443    24521 1
   25361    24444    24445 1
   25362    24444    24522 1
   25363    24444    24523 1
   25364    24445    24446 1
   25365    24445    24524 1
   25366    24445    24525 1
   25367    24446    24526 1
   25368    24446    24527 1
   25369    24446    24528 1
   25370    24529    24530 1
   25371    24529    24536 1
   25372    24529    24572 1
   25373    24530    24531 1
   25374    24530    24534 1
   25375    24531    24532 1
   25376    24531    24535 1
   25377    24532    24533 1
   25378    24533    24534 1
   25379    24533    24544 1
   25380    24534    24540 1
   25381    24535    24536 1
   25382    24535    24539 1
   25383    24536    24537 1
   25384    24537    24538 1
   25385    24537    24541 1
   25386    24538    24539 1
   25387    24542    24543 1
   25388    24542    24550 1
   25389    24543    24544 1
   25390    24543    24551 1
   25391    24544    24545 1
   25392    24545    24546 1
   25393    24545    24549 1
   25394    24546    24547 1
   25395    24547    24548 1
   25396    24548    24549 1
   25397    24549    24550 1
   25398    24550    24684 1
   25399    24552    24553 1
   25400    24552    24593 1
   25401    24552    24594 1
   25402    24552    24595 1
   25403    24553    24554 1
   25404    24553    24596 1
   25405    24553    24597 1
   25406    24554    24555 1
   25407    24554    24598 1
   25408    24554    24599 1
   25409    24555    24556 1
   25410    24555    24600 1
   25411    24555    24601 1
   25412    24556    24557 1
   25413    24556    24602 1
   25414    24556    24603 1
   25415    24557    24558 1
   25416    24557    24604 1
   25417    24557    24605 1
   25418    24558    24559 1
   25419    24558    24606 1
   25420    24558    24607 1
   25421    24559    24560 1
   25422    24559    24608 1
   25423    24559    24609 1
   25424    24560    24561 1
   25425    24560    24610 1
   25426    24560    24611 1
   25427    24561    24562 1
   25428    24561    24612 1
   25429    24561    24613 1
   25430    24562    24563 1
   25431    24562    24571 1
   25432    24562    24614 1
   25433    24563    24564 1
   25434    24563    24615 1
   25435    24563    24616 1
   25436    24564    24565 1
   25437    24564    24617 1
   25438    24564    24618 1
   25439    24565    24566 1
   25440    24565    24619 1
   25441    24565    24620 1
   25442    24566    24567 1
   25443    24566    24621 1
   25444    24566    24622 1
   25445    24567    24568 1
   25446    24567    24623 1
   25447    24567    24624 1
   25448    24568    24569 1
   25449    24568    24625 1
   25450    24568    24626 1
   25451    24569    24570 1
   25452    24569    24627 1
   25453    24569    24628 1
   25454    24570    24629 1
   25455    24570    24630 1
   25456    24570    24631 1
   25457    24571    24572 1
   25458    24571    24632 1
   25459    24571    24633 1
   25460    24572    24573 1
   25461    24573    24574 1
   25462    24573    24634 1
   25463    24573    24635 1
   25464    24574    24575 1
   25465    24574    24583 1
   25466    24574    24636 1
   25467    24575    24576 1
   25468    24575    24637 1
   25469    24575    24638 1
   25470    24576    24577 1
   25471    24576    24639 1
   25472    24576    24640 1
   25473    24577    24578 1
   25474    24577    24641 1
   25475    24577    24642 1
   25476    24578    24579 1
   25477    24578    24643 1
   25478    24578    24644 1
   25479    24579    24580 1
   25480    24579    24645 1
   25481    24579    24646 1
   25482    24580    24581 1
   25483    24580    24647 1
   25484    24580    24648 1
   25485    24581    24582 1
   25486    24581    24649 1
   25487    24581    24650 1
   25488    24582    24651 1
   25489    24582    24652 1
   25490    24582    24653 1
   25491    24583    24584 1
   25492    24583    24654 1
   25493    24583    24655 1
   25494    24584    24585 1
   25495    24584    24656 1
   25496    24584    24657 1
   25497    24585    24586 1
   25498    24585    24658 1
   25499    24585    24659 1
   25500    24586    24587 1
   25501    24586    24660 1
   25502    24586    24661 1
   25503    24587    24588 1
   25504    24587    24662 1
   25505    24587    24663 1
   25506    24588    24589 1
   25507    24588    24664 1
   25508    24588    24665 1
   25509    24589    24590 1
   25510    24589    24666 1
   25511    24589    24667 1
   25512    24590    24591 1
   25513    24590    24668 1
   25514    24590    24669 1
   25515    24591    24592 1
   25516    24591    24670 1
   25517    24591    24671 1
   25518    24592    24672 1
   25519    24592    24673 1
   25520    24592    24674 1
   25521    24675    24676 1
   25522    24675    24682 1
   25523    24675    24718 1
   25524    24676    24677 1
   25525    24676    24680 1
   25526    24677    24678 1
   25527    24677    24681 1
   25528    24678    24679 1
   25529    24679    24680 1
   25530    24679    24690 1
   25531    24680    24686 1
   25532    24681    24682 1
   25533    24681    24685 1
   25534    24682    24683 1
   25535    24683    24684 1
   25536    24683    24687 1
   25537    24684    24685 1
   25538    24688    24689 1
   25539    24688    24696 1
   25540    24689    24690 1
   25541    24689    24697 1
   25542    24690    24691 1
   25543    24691    24692 1
   25544    24691    24695 1
   25545    24692    24693 1
   25546    24693    24694 1
   25547    24694    24695 1
   25548    24695    24696 1
   25549    24696    24830 1
   25550    24698    24699 1
   25551    24698    24739 1
   25552    24698    24740 1
   25553    24698    24741 1
   25554    24699    24700 1
   25555    24699    24742 1
   25556    24699    24743 1
   25557    24700    24701 1
   25558    24700    24744 1
   25559    24700    24745 1
   25560    24701    24702 1
   25561    24701    24746 1
   25562    24701    24747 1
   25563    24702    24703 1
   25564    24702    24748 1
   25565    24702    24749 1
   25566    24703    24704 1
   25567    24703    24750 1
   25568    24703    24751 1
   25569    24704    24705 1
   25570    24704    24752 1
   25571    24704    24753 1
   25572    24705    24706 1
   25573    24705    24754 1
   25574    24705    24755 1
   25575    24706    24707 1
   25576    24706    24756 1
   25577    24706    24757 1
   25578    24707    24708 1
   25579    24707    24758 1
   25580    24707    24759 1
   25581    24708    24709 1
   25582    24708    24717 1
   25583    24708    24760 1
   25584    24709    24710 1
   25585    24709    24761 1
   25586    24709    24762 1
   25587    24710    24711 1
   25588    24710    24763 1
   25589    24710    24764 1
   25590    24711    24712 1
   25591    24711    24765 1
   25592    24711    24766 1
   25593    24712    24713 1
   25594    24712    24767 1
   25595    24712    24768 1
   25596    24713    24714 1
   25597    24713    24769 1
   25598    24713    24770 1
   25599    24714    24715 1
   25600    24714    24771 1
   25601    24714    24772 1
   25602    24715    24716 1
   25603    24715    24773 1
   25604    24715    24774 1
   25605    24716    24775 1
   25606    24716    24776 1
   25607    24716    24777 1
   25608    24717    24718 1
   25609    24717    24778 1
   25610    24717    24779 1
   25611    24718    24719 1
   25612    24719    24720 1
   25613    24719    24780 1
   25614    24719    24781 1
   25615    24720    24721 1
   25616    24720    24729 1
   25617    24720    24782 1
   25618    24721    24722 1
   25619    24721    24783 1
   25620    24721    24784 1
   25621    24722    24723 1
   25622    24722    24785 1
   25623    24722    24786 1
   25624    24723    24724 1
   25625    24723    24787 1
   25626    24723    24788 1
   25627    24724    24725 1
   25628    24724    24789 1
   25629    24724    24790 1
   25630    24725    24726 1
   25631    24725    24791 1
   25632    24725    24792 1
   25633    24726    24727 1
   25634    24726    24793 1
   25635    24726    24794 1
   25636    24727    24728 1
   25637    24727    24795 1
   25638    24727    24796 1
   25639    24728    24797 1
   25640    24728    24798 1
   25641    24728    24799 1
   25642    24729    24730 1
   25643    24729    24800 1
   25644    24729    24801 1
   25645    24730    24731 1
   25646    24730    24802 1
   25647    24730    24803 1
   25648    24731    24732 1
   25649    24731    24804 1
   25650    24731    24805 1
   25651    24732    24733 1
   25652    24732    24806 1
   25653    24732    24807 1
   25654    24733    24734 1
   25655    24733    24808 1
   25656    24733    24809 1
   25657    24734    24735 1
   25658    24734    24810 1
   25659    24734    24811 1
   25660    24735    24736 1
   25661    24735    24812 1
   25662    24735    24813 1
   25663    24736    24737 1
   25664    24736    24814 1
   25665    24736    24815 1
   25666    24737    24738 1
   25667    24737    24816 1
   25668    24737    24817 1
   25669    24738    24818 1
   25670    24738    24819 1
   25671    24738    24820 1
   25672    24821    24822 1
   25673    24821    24828 1
   25674    24821    24864 1
   25675    24822    24823 1
   25676    24822    24826 1
   25677    24823    24824 1
   25678    24823    24827 1
   25679    24824    24825 1
   25680    24825    24826 1
   25681    24825    24836 1
   25682    24826    24832 1
   25683    24827    24828 1
   25684    24827    24831 1
   25685    24828    24829 1
   25686    24829    24830 1
   25687    24829    24833 1
   25688    24830    24831 1
   25689    24834    24835 1
   25690    24834    24842 1
   25691    24835    24836 1
   25692    24835    24843 1
   25693    24836    24837 1
   25694    24837    24838 1
   25695    24837    24841 1
   25696    24838    24839 1
   25697    24839    24840 1
   25698    24840    24841 1
   25699    24841    24842 1
   25700    24842    24976 1
   25701    24844    24845 1
   25702    24844    24885 1
   25703    24844    24886 1
   25704    24844    24887 1
   25705    24845    24846 1
   25706    24845    24888 1
   25707    24845    24889 1
   25708    24846    24847 1
   25709    24846    24890 1
   25710    24846    24891 1
   25711    24847    24848 1
   25712    24847    24892 1
   25713    24847    24893 1
   25714    24848    24849 1
   25715    24848    24894 1
   25716    24848    24895 1
   25717    24849    24850 1
   25718    24849    24896 1
   25719    24849    24897 1
   25720    24850    24851 1
   25721    24850    24898 1
   25722    24850    24899 1
   25723    24851    24852 1
   25724    24851    24900 1
   25725    24851    24901 1
   25726    24852    24853 1
   25727    24852    24902 1
   25728    24852    24903 1
   25729    24853    24854 1
   25730    24853    24904 1
   25731    24853    24905 1
   25732    24854    24855 1
   25733    24854    24863 1
   25734    24854    24906 1
   25735    24855    24856 1
   25736    24855    24907 1
   25737    24855    24908 1
   25738    24856    24857 1
   25739    24856    24909 1
   25740    24856    24910 1
   25741    24857    24858 1
   25742    24857    24911 1
   25743    24857    24912 1
   25744    24858    24859 1
   25745    24858    24913 1
   25746    24858    24914 1
   25747    24859    24860 1
   25748    24859    24915 1
   25749    24859    24916 1
   25750    24860    24861 1
   25751    24860    24917 1
   25752    24860    24918 1
   25753    24861    24862 1
   25754    24861    24919 1
   25755    24861    24920 1
   25756    24862    24921 1
   25757    24862    24922 1
   25758    24862    24923 1
   25759    24863    24864 1
   25760    24863    24924 1
   25761    24863    24925 1
   25762    24864    24865 1
   25763    24865    24866 1
   25764    24865    24926 1
   25765    24865    24927 1
   25766    24866    24867 1
   25767    24866    24875 1
   25768    24866    24928 1
   25769    24867    24868 1
   25770    24867    24929 1
   25771    24867    24930 1
   25772    24868    24869 1
   25773    24868    24931 1
   25774    24868    24932 1
   25775    24869    24870 1
   25776    24869    24933 1
   25777    24869    24934 1
   25778    24870    24871 1
   25779    24870    24935 1
   25780    24870    24936 1
   25781    24871    24872 1
   25782    24871    24937 1
   25783    24871    24938 1
   25784    24872    24873 1
   25785    24872    24939 1
   25786    24872    24940 1
   25787    24873    24874 1
   25788    24873    24941 1
   25789    24873    24942 1
   25790    24874    24943 1
   25791    24874    24944 1
   25792    24874    24945 1
   25793    24875    24876 1
   25794    24875    24946 1
   25795    24875    24947 1
   25796    24876    24877 1
   25797    24876    24948 1
   25798    24876    24949 1
   25799    24877    24878 1
   25800    24877    24950 1
   25801    24877    24951 1
   25802    24878    24879 1
   25803    24878    24952 1
   25804    24878    24953 1
   25805    24879    24880 1
   25806    24879    24954 1
   25807    24879    24955 1
   25808    24880    24881 1
   25809    24880    24956 1
   25810    24880    24957 1
   25811    24881    24882 1
   25812    24881    24958 1
   25813    24881    24959 1
   25814    24882    24883 1
   25815    24882    24960 1
   25816    24882    24961 1
   25817    24883    24884 1
   25818    24883    24962 1
   25819    24883    24963 1
   25820    24884    24964 1
   25821    24884    24965 1
   25822    24884    24966 1
   25823    24967    24968 1
   25824    24967    24974 1
   25825    24967    25010 1
   25826    24968    24969 1
   25827    24968    24972 1
   25828    24969    24970 1
   25829    24969    24973 1
   25830    24970    24971 1
   25831    24971    24972 1
   25832    24971    24982 1
   25833    24972    24978 1
   25834    24973    24974 1
   25835    24973    24977 1
   25836    24974    24975 1
   25837    24975    24976 1
   25838    24975    24979 1
   25839    24976    24977 1
   25840    24980    24981 1
   25841    24980    24988 1
   25842    24981    24982 1
   25843    24981    24989 1
   25844    24982    24983 1
   25845    24983    24984 1
   25846    24983    24987 1
   25847    24984    24985 1
   25848    24985    24986 1
   25849    24986    24987 1
   25850    24987    24988 1
   25851    24988    25122 1
   25852    24990    24991 1
   25853    24990    25031 1
   25854    24990    25032 1
   25855    24990    25033 1
   25856    24991    24992 1
   25857    24991    25034 1
   25858    24991    25035 1
   25859    24992    24993 1
   25860    24992    25036 1
   25861    24992    25037 1
   25862    24993    24994 1
   25863    24993    25038 1
   25864    24993    25039 1
   25865    24994    24995 1
   25866    24994    25040 1
   25867    24994    25041 1
   25868    24995    24996 1
   25869    24995    25042 1
   25870    24995    25043 1
   25871    24996    24997 1
   25872    24996    25044 1
   25873    24996    25045 1
   25874    24997    24998 1
   25875    24997    25046 1
   25876    24997    25047 1
   25877    24998    24999 1
   25878    24998    25048 1
   25879    24998    25049 1
   25880    24999    25000 1
   25881    24999    25050 1
   25882    24999    25051 1
   25883    25000    25001 1
   25884    25000    25009 1
   25885    25000    25052 1
   25886    25001    25002 1
   25887    25001    25053 1
   25888    25001    25054 1
   25889    25002    25003 1
   25890    25002    25055 1
   25891    25002    25056 1
   25892    25003    25004 1
   25893    25003    25057 1
   25894    25003    25058 1
   25895    25004    25005 1
   25896    25004    25059 1
   25897    25004    25060 1
   25898    25005    25006 1
   25899    25005    25061 1
   25900    25005    25062 1
   25901    25006    25007 1
   25902    25006    25063 1
   25903    25006    25064 1
   25904    25007    25008 1
   25905    25007    25065 1
   25906    25007    25066 1
   25907    25008    25067 1
   25908    25008    25068 1
   25909    25008    25069 1
   25910    25009    25010 1
   25911    25009    25070 1
   25912    25009    25071 1
   25913    25010    25011 1
   25914    25011    25012 1
   25915    25011    25072 1
   25916    25011    25073 1
   25917    25012    25013 1
   25918    25012    25021 1
   25919    25012    25074 1
   25920    25013    25014 1
   25921    25013    25075 1
   25922    25013    25076 1
   25923    25014    25015 1
   25924    25014    25077 1
   25925    25014    25078 1
   25926    25015    25016 1
   25927    25015    25079 1
   25928    25015    25080 1
   25929    25016    25017 1
   25930    25016    25081 1
   25931    25016    25082 1
   25932    25017    25018 1
   25933    25017    25083 1
   25934    25017    25084 1
   25935    25018    25019 1
   25936    25018    25085 1
   25937    25018    25086 1
   25938    25019    25020 1
   25939    25019    25087 1
   25940    25019    25088 1
   25941    25020    25089 1
   25942    25020    25090 1
   25943    25020    25091 1
   25944    25021    25022 1
   25945    25021    25092 1
   25946    25021    25093 1
   25947    25022    25023 1
   25948    25022    25094 1
   25949    25022    25095 1
   25950    25023    25024 1
   25951    25023    25096 1
   25952    25023    25097 1
   25953    25024    25025 1
   25954    25024    25098 1
   25955    25024    25099 1
   25956    25025    25026 1
   25957    25025    25100 1
   25958    25025    25101 1
   25959    25026    25027 1
   25960    25026    25102 1
   25961    25026    25103 1
   25962    25027    25028 1
   25963    25027    25104 1
   25964    25027    25105 1
   25965    25028    25029 1
   25966    25028    25106 1
   25967    25028    25107 1
   25968    25029    25030 1
   25969    25029    25108 1
   25970    25029    25109 1
   25971    25030    25110 1
   25972    25030    25111 1
   25973    25030    25112 1
   25974    25113    25114 1
   25975    25113    25120 1
   25976    25113    25156 1
   25977    25114    25115 1
   25978    25114    25118 1
   25979    25115    25116 1
   25980    25115    25119 1
   25981    25116    25117 1
   25982    25117    25118 1
   25983    25117    25128 1
   25984    25118    25124 1
   25985    25119    25120 1
   25986    25119    25123 1
   25987    25120    25121 1
   25988    25121    25122 1
   25989    25121    25125 1
   25990    25122    25123 1
   25991    25126    25127 1
   25992    25126    25134 1
   25993    25127    25128 1
   25994    25127    25135 1
   25995    25128    25129 1
   25996    25129    25130 1
   25997    25129    25133 1
   25998    25130    25131 1
   25999    25131    25132 1
   26000    25132    25133 1
   26001    25133    25134 1
   26002    25134    25268 1
   26003    25136    25137 1
   26004    25136    25177 1
   26005    25136    25178 1
   26006    25136    25179 1
   26007    25137    25138 1
   26008    25137    25180 1
   26009    25137    25181 1
   26010    25138    25139 1
   26011    25138    25182 1
   26012    25138    25183 1
   26013    25139    25140 1
   26014    25139    25184 1
   26015    25139    25185 1
   26016    25140    25141 1
   26017    25140    25186 1
   26018    25140    25187 1
   26019    25141    25142 1
   26020    25141    25188 1
   26021    25141    25189 1
   26022    25142    25143 1
   26023    25142    25190 1
   26024    25142    25191 1
   26025    25143    25144 1
   26026    25143    25192 1
   26027    25143    25193 1
   26028    25144    25145 1
   26029    25144    25194 1
   26030    25144    25195 1
   26031    25145    25146 1
   26032    25145    25196 1
   26033    25145    25197 1
   26034    25146    25147 1
   26035    25146    25155 1
   26036    25146    25198 1
   26037    25147    25148 1
   26038    25147    25199 1
   26039    25147    25200 1
   26040    25148    25149 1
   26041    25148    25201 1
   26042    25148    25202 1
   26043    25149    25150 1
   26044    25149    25203 1
   26045    25149    25204 1
   26046    25150    25151 1
   26047    25150    25205 1
   26048    25150    25206 1
   26049    25151    25152 1
   26050    25151    25207 1
   26051    25151    25208 1
   26052    25152    25153 1
   26053    25152    25209 1
   26054    25152    25210 1
   26055    25153    25154 1
   26056    25153    25211 1
   26057    25153    25212 1
   26058    25154    25213 1
   26059    25154    25214 1
   26060    25154    25215 1
   26061    25155    25156 1
   26062    25155    25216 1
   26063    25155    25217 1
   26064    25156    25157 1
   26065    25157    25158 1
   26066    25157    25218 1
   26067    25157    25219 1
   26068    25158    25159 1
   26069    25158    25167 1
   26070    25158    25220 1
   26071    25159    25160 1
   26072    25159    25221 1
   26073    25159    25222 1
   26074    25160    25161 1
   26075    25160    25223 1
   26076    25160    25224 1
   26077    25161    25162 1
   26078    25161    25225 1
   26079    25161    25226 1
   26080    25162    25163 1
   26081    25162    25227 1
   26082    25162    25228 1
   26083    25163    25164 1
   26084    25163    25229 1
   26085    25163    25230 1
   26086    25164    25165 1
   26087    25164    25231 1
   26088    25164    25232 1
   26089    25165    25166 1
   26090    25165    25233 1
   26091    25165    25234 1
   26092    25166    25235 1
   26093    25166    25236 1
   26094    25166    25237 1
   26095    25167    25168 1
   26096    25167    25238 1
   26097    25167    25239 1
   26098    25168    25169 1
   26099    25168    25240 1
   26100    25168    25241 1
   26101    25169    25170 1
   26102    25169    25242 1
   26103    25169    25243 1
   26104    25170    25171 1
   26105    25170    25244 1
   26106    25170    25245 1
   26107    25171    25172 1
   26108    25171    25246 1
   26109    25171    25247 1
   26110    25172    25173 1
   26111    25172    25248 1
   26112    25172    25249 1
   26113    25173    25174 1
   26114    25173    25250 1
   26115    25173    25251 1
   26116    25174    25175 1
   26117    25174    25252 1
   26118    25174    25253 1
   26119    25175    25176 1
   26120    25175    25254 1
   26121    25175    25255 1
   26122    25176    25256 1
   26123    25176    25257 1
   26124    25176    25258 1
   26125    25259    25260 1
   26126    25259    25266 1
   26127    25259    25302 1
   26128    25260    25261 1
   26129    25260    25264 1
   26130    25261    25262 1
   26131    25261    25265 1
   26132    25262    25263 1
   26133    25263    25264 1
   26134    25263    25274 1
   26135    25264    25270 1
   26136    25265    25266 1
   26137    25265    25269 1
   26138    25266    25267 1
   26139    25267    25268 1
   26140    25267    25271 1
   26141    25268    25269 1
   26142    25272    25273 1
   26143    25272    25280 1
   26144    25273    25274 1
   26145    25273    25281 1
   26146    25274    25275 1
   26147    25275    25276 1
   26148    25275    25279 1
   26149    25276    25277 1
   26150    25277    25278 1
   26151    25278    25279 1
   26152    25279    25280 1
   26153    25280    25414 1
   26154    25282    25283 1
   26155    25282    25323 1
   26156    25282    25324 1
   26157    25282    25325 1
   26158    25283    25284 1
   26159    25283    25326 1
   26160    25283    25327 1
   26161    25284    25285 1
   26162    25284    25328 1
   26163    25284    25329 1
   26164    25285    25286 1
   26165    25285    25330 1
   26166    25285    25331 1
   26167    25286    25287 1
   26168    25286    25332 1
   26169    25286    25333 1
   26170    25287    25288 1
   26171    25287    25334 1
   26172    25287    25335 1
   26173    25288    25289 1
   26174    25288    25336 1
   26175    25288    25337 1
   26176    25289    25290 1
   26177    25289    25338 1
   26178    25289    25339 1
   26179    25290    25291 1
   26180    25290    25340 1
   26181    25290    25341 1
   26182    25291    25292 1
   26183    25291    25342 1
   26184    25291    25343 1
   26185    25292    25293 1
   26186    25292    25301 1
   26187    25292    25344 1
   26188    25293    25294 1
   26189    25293    25345 1
   26190    25293    25346 1
   26191    25294    25295 1
   26192    25294    25347 1
   26193    25294    25348 1
   26194    25295    25296 1
   26195    25295    25349 1
   26196    25295    25350 1
   26197    25296    25297 1
   26198    25296    25351 1
   26199    25296    25352 1
   26200    25297    25298 1
   26201    25297    25353 1
   26202    25297    25354 1
   26203    25298    25299 1
   26204    25298    25355 1
   26205    25298    25356 1
   26206    25299    25300 1
   26207    25299    25357 1
   26208    25299    25358 1
   26209    25300    25359 1
   26210    25300    25360 1
   26211    25300    25361 1
   26212    25301    25302 1
   26213    25301    25362 1
   26214    25301    25363 1
   26215    25302    25303 1
   26216    25303    25304 1
   26217    25303    25364 1
   26218    25303    25365 1
   26219    25304    25305 1
   26220    25304    25313 1
   26221    25304    25366 1
   26222    25305    25306 1
   26223    25305    25367 1
   26224    25305    25368 1
   26225    25306    25307 1
   26226    25306    25369 1
   26227    25306    25370 1
   26228    25307    25308 1
   26229    25307    25371 1
   26230    25307    25372 1
   26231    25308    25309 1
   26232    25308    25373 1
   26233    25308    25374 1
   26234    25309    25310 1
   26235    25309    25375 1
   26236    25309    25376 1
   26237    25310    25311 1
   26238    25310    25377 1
   26239    25310    25378 1
   26240    25311    25312 1
   26241    25311    25379 1
   26242    25311    25380 1
   26243    25312    25381 1
   26244    25312    25382 1
   26245    25312    25383 1
   26246    25313    25314 1
   26247    25313    25384 1
   26248    25313    25385 1
   26249    25314    25315 1
   26250    25314    25386 1
   26251    25314    25387 1
   26252    25315    25316 1
   26253    25315    25388 1
   26254    25315    25389 1
   26255    25316    25317 1
   26256    25316    25390 1
   26257    25316    25391 1
   26258    25317    25318 1
   26259    25317    25392 1
   26260    25317    25393 1
   26261    25318    25319 1
   26262    25318    25394 1
   26263    25318    25395 1
   26264    25319    25320 1
   26265    25319    25396 1
   26266    25319    25397 1
   26267    25320    25321 1
   26268    25320    25398 1
   26269    25320    25399 1
   26270    25321    25322 1
   26271    25321    25400 1
   26272    25321    25401 1
   26273    25322    25402 1
   26274    25322    25403 1
   26275    25322    25404 1
   26276    25405    25406 1
   26277    25405    25412 1
   26278    25405    25448 1
   26279    25406    25407 1
   26280    25406    25410 1
   26281    25407    25408 1
   26282    25407    25411 1
   26283    25408    25409 1
   26284    25409    25410 1
   26285    25409    25420 1
   26286    25410    25416 1
   26287    25411    25412 1
   26288    25411    25415 1
   26289    25412    25413 1
   26290    25413    25414 1
   26291    25413    25417 1
   26292    25414    25415 1
   26293    25418    25419 1
   26294    25418    25426 1
   26295    25419    25420 1
   26296    25419    25427 1
   26297    25420    25421 1
   26298    25421    25422 1
   26299    25421    25425 1
   26300    25422    25423 1
   26301    25423    25424 1
   26302    25424    25425 1
   26303    25425    25426 1
   26304    25426    25560 1
   26305    25428    25429 1
   26306    25428    25469 1
   26307    25428    25470 1
   26308    25428    25471 1
   26309    25429    25430 1
   26310    25429    25472 1
   26311    25429    25473 1
   26312    25430    25431 1
   26313    25430    25474 1
   26314    25430    25475 1
   26315    25431    25432 1
   26316    25431    25476 1
   26317    25431    25477 1
   26318    25432    25433 1
   26319    25432    25478 1
   26320    25432    25479 1
   26321    25433    25434 1
   26322    25433    25480 1
   26323    25433    25481 1
   26324    25434    25435 1
   26325    25434    25482 1
   26326    25434    25483 1
   26327    25435    25436 1
   26328    25435    25484 1
   26329    25435    25485 1
   26330    25436    25437 1
   26331    25436    25486 1
   26332    25436    25487 1
   26333    25437    25438 1
   26334    25437    25488 1
   26335    25437    25489 1
   26336    25438    25439 1
   26337    25438    25447 1
   26338    25438    25490 1
   26339    25439    25440 1
   26340    25439    25491 1
   26341    25439    25492 1
   26342    25440    25441 1
   26343    25440    25493 1
   26344    25440    25494 1
   26345    25441    25442 1
   26346    25441    25495 1
   26347    25441    25496 1
   26348    25442    25443 1
   26349    25442    25497 1
   26350    25442    25498 1
   26351    25443    25444 1
   26352    25443    25499 1
   26353    25443    25500 1
   26354    25444    25445 1
   26355    25444    25501 1
   26356    25444    25502 1
   26357    25445    25446 1
   26358    25445    25503 1
   26359    25445    25504 1
   26360    25446    25505 1
   26361    25446    25506 1
   26362    25446    25507 1
   26363    25447    25448 1
   26364    25447    25508 1
   26365    25447    25509 1
   26366    25448    25449 1
   26367    25449    25450 1
   26368    25449    25510 1
   26369    25449    25511 1
   26370    25450    25451 1
   26371    25450    25459 1
   26372    25450    25512 1
   26373    25451    25452 1
   26374    25451    25513 1
   26375    25451    25514 1
   26376    25452    25453 1
   26377    25452    25515 1
   26378    25452    25516 1
   26379    25453    25454 1
   26380    25453    25517 1
   26381    25453    25518 1
   26382    25454    25455 1
   26383    25454    25519 1
   26384    25454    25520 1
   26385    25455    25456 1
   26386    25455    25521 1
   26387    25455    25522 1
   26388    25456    25457 1
   26389    25456    25523 1
   26390    25456    25524 1
   26391    25457    25458 1
   26392    25457    25525 1
   26393    25457    25526 1
   26394    25458    25527 1
   26395    25458    25528 1
   26396    25458    25529 1
   26397    25459    25460 1
   26398    25459    25530 1
   26399    25459    25531 1
   26400    25460    25461 1
   26401    25460    25532 1
   26402    25460    25533 1
   26403    25461    25462 1
   26404    25461    25534 1
   26405    25461    25535 1
   26406    25462    25463 1
   26407    25462    25536 1
   26408    25462    25537 1
   26409    25463    25464 1
   26410    25463    25538 1
   26411    25463    25539 1
   26412    25464    25465 1
   26413    25464    25540 1
   26414    25464    25541 1
   26415    25465    25466 1
   26416    25465    25542 1
   26417    25465    25543 1
   26418    25466    25467 1
   26419    25466    25544 1
   26420    25466    25545 1
   26421    25467    25468 1
   26422    25467    25546 1
   26423    25467    25547 1
   26424    25468    25548 1
   26425    25468    25549 1
   26426    25468    25550 1
   26427    25551    25552 1
   26428    25551    25558 1
   26429    25551    25594 1
   26430    25552    25553 1
   26431    25552    25556 1
   26432    25553    25554 1
   26433    25553    25557 1
   26434    25554    25555 1
   26435    25555    25556 1
   26436    25555    25566 1
   26437    25556    25562 1
   26438    25557    25558 1
   26439    25557    25561 1
   26440    25558    25559 1
   26441    25559    25560 1
   26442    25559    25563 1
   26443    25560    25561 1
   26444    25564    25565 1
   26445    25564    25572 1
   26446    25565    25566 1
   26447    25565    25573 1
   26448    25566    25567 1
   26449    25567    25568 1
   26450    25567    25571 1
   26451    25568    25569 1
   26452    25569    25570 1
   26453    25570    25571 1
   26454    25571    25572 1
   26455    25572    25706 1
   26456    25574    25575 1
   26457    25574    25615 1
   26458    25574    25616 1
   26459    25574    25617 1
   26460    25575    25576 1
   26461    25575    25618 1
   26462    25575    25619 1
   26463    25576    25577 1
   26464    25576    25620 1
   26465    25576    25621 1
   26466    25577    25578 1
   26467    25577    25622 1
   26468    25577    25623 1
   26469    25578    25579 1
   26470    25578    25624 1
   26471    25578    25625 1
   26472    25579    25580 1
   26473    25579    25626 1
   26474    25579    25627 1
   26475    25580    25581 1
   26476    25580    25628 1
   26477    25580    25629 1
   26478    25581    25582 1
   26479    25581    25630 1
   26480    25581    25631 1
   26481    25582    25583 1
   26482    25582    25632 1
   26483    25582    25633 1
   26484    25583    25584 1
   26485    25583    25634 1
   26486    25583    25635 1
   26487    25584    25585 1
   26488    25584    25593 1
   26489    25584    25636 1
   26490    25585    25586 1
   26491    25585    25637 1
   26492    25585    25638 1
   26493    25586    25587 1
   26494    25586    25639 1
   26495    25586    25640 1
   26496    25587    25588 1
   26497    25587    25641 1
   26498    25587    25642 1
   26499    25588    25589 1
   26500    25588    25643 1
   26501    25588    25644 1
   26502    25589    25590 1
   26503    25589    25645 1
   26504    25589    25646 1
   26505    25590    25591 1
   26506    25590    25647 1
   26507    25590    25648 1
   26508    25591    25592 1
   26509    25591    25649 1
   26510    25591    25650 1
   26511    25592    25651 1
   26512    25592    25652 1
   26513    25592    25653 1
   26514    25593    25594 1
   26515    25593    25654 1
   26516    25593    25655 1
   26517    25594    25595 1
   26518    25595    25596 1
   26519    25595    25656 1
   26520    25595    25657 1
   26521    25596    25597 1
   26522    25596    25605 1
   26523    25596    25658 1
   26524    25597    25598 1
   26525    25597    25659 1
   26526    25597    25660 1
   26527    25598    25599 1
   26528    25598    25661 1
   26529    25598    25662 1
   26530    25599    25600 1
   26531    25599    25663 1
   26532    25599    25664 1
   26533    25600    25601 1
   26534    25600    25665 1
   26535    25600    25666 1
   26536    25601    25602 1
   26537    25601    25667 1
   26538    25601    25668 1
   26539    25602    25603 1
   26540    25602    25669 1
   26541    25602    25670 1
   26542    25603    25604 1
   26543    25603    25671 1
   26544    25603    25672 1
   26545    25604    25673 1
   26546    25604    25674 1
   26547    25604    25675 1
   26548    25605    25606 1
   26549    25605    25676 1
   26550    25605    25677 1
   26551    25606    25607 1
   26552    25606    25678 1
   26553    25606    25679 1
   26554    25607    25608 1
   26555    25607    25680 1
   26556    25607    25681 1
   26557    25608    25609 1
   26558    25608    25682 1
   26559    25608    25683 1
   26560    25609    25610 1
   26561    25609    25684 1
   26562    25609    25685 1
   26563    25610    25611 1
   26564    25610    25686 1
   26565    25610    25687 1
   26566    25611    25612 1
   26567    25611    25688 1
   26568    25611    25689 1
   26569    25612    25613 1
   26570    25612    25690 1
   26571    25612    25691 1
   26572    25613    25614 1
   26573    25613    25692 1
   26574    25613    25693 1
   26575    25614    25694 1
   26576    25614    25695 1
   26577    25614    25696 1
   26578    25697    25698 1
   26579    25697    25704 1
   26580    25697    25740 1
   26581    25698    25699 1
   26582    25698    25702 1
   26583    25699    25700 1
   26584    25699    25703 1
   26585    25700    25701 1
   26586    25701    25702 1
   26587    25701    25712 1
   26588    25702    25708 1
   26589    25703    25704 1
   26590    25703    25707 1
   26591    25704    25705 1
   26592    25705    25706 1
   26593    25705    25709 1
   26594    25706    25707 1
   26595    25710    25711 1
   26596    25710    25718 1
   26597    25711    25712 1
   26598    25711    25719 1
   26599    25712    25713 1
   26600    25713    25714 1
   26601    25713    25717 1
   26602    25714    25715 1
   26603    25715    25716 1
   26604    25716    25717 1
   26605    25717    25718 1
   26606    25718    25852 1
   26607    25720    25721 1
   26608    25720    25761 1
   26609    25720    25762 1
   26610    25720    25763 1
   26611    25721    25722 1
   26612    25721    25764 1
   26613    25721    25765 1
   26614    25722    25723 1
   26615    25722    25766 1
   26616    25722    25767 1
   26617    25723    25724 1
   26618    25723    25768 1
   26619    25723    25769 1
   26620    25724    25725 1
   26621    25724    25770 1
   26622    25724    25771 1
   26623    25725    25726 1
   26624    25725    25772 1
   26625    25725    25773 1
   26626    25726    25727 1
   26627    25726    25774 1
   26628    25726    25775 1
   26629    25727    25728 1
   26630    25727    25776 1
   26631    25727    25777 1
   26632    25728    25729 1
   26633    25728    25778 1
   26634    25728    25779 1
   26635    25729    25730 1
   26636    25729    25780 1
   26637    25729    25781 1
   26638    25730    25731 1
   26639    25730    25739 1
   26640    25730    25782 1
   26641    25731    25732 1
   26642    25731    25783 1
   26643    25731    25784 1
   26644    25732    25733 1
   26645    25732    25785 1
   26646    25732    25786 1
   26647    25733    25734 1
   26648    25733    25787 1
   26649    25733    25788 1
   26650    25734    25735 1
   26651    25734    25789 1
   26652    25734    25790 1
   26653    25735    25736 1
   26654    25735    25791 1
   26655    25735    25792 1
   26656    25736    25737 1
   26657    25736    25793 1
   26658    25736    25794 1
   26659    25737    25738 1
   26660    25737    25795 1
   26661    25737    25796 1
   26662    25738    25797 1
   26663    25738    25798 1
   26664    25738    25799 1
   26665    25739    25740 1
   26666    25739    25800 1
   26667    25739    25801 1
   26668    25740    25741 1
   26669    25741    25742 1
   26670    25741    25802 1
   26671    25741    25803 1
   26672    25742    25743 1
   26673    25742    25751 1
   26674    25742    25804 1
   26675    25743    25744 1
   26676    25743    25805 1
   26677    25743    25806 1
   26678    25744    25745 1
   26679    25744    25807 1
   26680    25744    25808 1
   26681    25745    25746 1
   26682    25745    25809 1
   26683    25745    25810 1
   26684    25746    25747 1
   26685    25746    25811 1
   26686    25746    25812 1
   26687    25747    25748 1
   26688    25747    25813 1
   26689    25747    25814 1
   26690    25748    25749 1
   26691    25748    25815 1
   26692    25748    25816 1
   26693    25749    25750 1
   26694    25749    25817 1
   26695    25749    25818 1
   26696    25750    25819 1
   26697    25750    25820 1
   26698    25750    25821 1
   26699    25751    25752 1
   26700    25751    25822 1
   26701    25751    25823 1
   26702    25752    25753 1
   26703    25752    25824 1
   26704    25752    25825 1
   26705    25753    25754 1
   26706    25753    25826 1
   26707    25753    25827 1
   26708    25754    25755 1
   26709    25754    25828 1
   26710    25754    25829 1
   26711    25755    25756 1
   26712    25755    25830 1
   26713    25755    25831 1
   26714    25756    25757 1
   26715    25756    25832 1
   26716    25756    25833 1
   26717    25757    25758 1
   26718    25757    25834 1
   26719    25757    25835 1
   26720    25758    25759 1
   26721    25758    25836 1
   26722    25758    25837 1
   26723    25759    25760 1
   26724    25759    25838 1
   26725    25759    25839 1
   26726    25760    25840 1
   26727    25760    25841 1
   26728    25760    25842 1
   26729    25843    25844 1
   26730    25843    25850 1
   26731    25843    25886 1
   26732    25844    25845 1
   26733    25844    25848 1
   26734    25845    25846 1
   26735    25845    25849 1
   26736    25846    25847 1
   26737    25847    25848 1
   26738    25847    25858 1
   26739    25848    25854 1
   26740    25849    25850 1
   26741    25849    25853 1
   26742    25850    25851 1
   26743    25851    25852 1
   26744    25851    25855 1
   26745    25852    25853 1
   26746    25856    25857 1
   26747    25856    25864 1
   26748    25857    25858 1
   26749    25857    25865 1
   26750    25858    25859 1
   26751    25859    25860 1
   26752    25859    25863 1
   26753    25860    25861 1
   26754    25861    25862 1
   26755    25862    25863 1
   26756    25863    25864 1
   26757    25864    25998 1
   26758    25866    25867 1
   26759    25866    25907 1
   26760    25866    25908 1
   26761    25866    25909 1
   26762    25867    25868 1
   26763    25867    25910 1
   26764    25867    25911 1
   26765    25868    25869 1
   26766    25868    25912 1
   26767    25868    25913 1
   26768    25869    25870 1
   26769    25869    25914 1
   26770    25869    25915 1
   26771    25870    25871 1
   26772    25870    25916 1
   26773    25870    25917 1
   26774    25871    25872 1
   26775    25871    25918 1
   26776    25871    25919 1
   26777    25872    25873 1
   26778    25872    25920 1
   26779    25872    25921 1
   26780    25873    25874 1
   26781    25873    25922 1
   26782    25873    25923 1
   26783    25874    25875 1
   26784    25874    25924 1
   26785    25874    25925 1
   26786    25875    25876 1
   26787    25875    25926 1
   26788    25875    25927 1
   26789    25876    25877 1
   26790    25876    25885 1
   26791    25876    25928 1
   26792    25877    25878 1
   26793    25877    25929 1
   26794    25877    25930 1
   26795    25878    25879 1
   26796    25878    25931 1
   26797    25878    25932 1
   26798    25879    25880 1
   26799    25879    25933 1
   26800    25879    25934 1
   26801    25880    25881 1
   26802    25880    25935 1
   26803    25880    25936 1
   26804    25881    25882 1
   26805    25881    25937 1
   26806    25881    25938 1
   26807    25882    25883 1
   26808    25882    25939 1
   26809    25882    25940 1
   26810    25883    25884 1
   26811    25883    25941 1
   26812    25883    25942 1
   26813    25884    25943 1
   26814    25884    25944 1
   26815    25884    25945 1
   26816    25885    25886 1
   26817    25885    25946 1
   26818    25885    25947 1
   26819    25886    25887 1
   26820    25887    25888 1
   26821    25887    25948 1
   26822    25887    25949 1
   26823    25888    25889 1
   26824    25888    25897 1
   26825    25888    25950 1
   26826    25889    25890 1
   26827    25889    25951 1
   26828    25889    25952 1
   26829    25890    25891 1
   26830    25890    25953 1
   26831    25890    25954 1
   26832    25891    25892 1
   26833    25891    25955 1
   26834    25891    25956 1
   26835    25892    25893 1
   26836    25892    25957 1
   26837    25892    25958 1
   26838    25893    25894 1
   26839    25893    25959 1
   26840    25893    25960 1
   26841    25894    25895 1
   26842    25894    25961 1
   26843    25894    25962 1
   26844    25895    25896 1
   26845    25895    25963 1
   26846    25895    25964 1
   26847    25896    25965 1
   26848    25896    25966 1
   26849    25896    25967 1
   26850    25897    25898 1
   26851    25897    25968 1
   26852    25897    25969 1
   26853    25898    25899 1
   26854    25898    25970 1
   26855    25898    25971 1
   26856    25899    25900 1
   26857    25899    25972 1
   26858    25899    25973 1
   26859    25900    25901 1
   26860    25900    25974 1
   26861    25900    25975 1
   26862    25901    25902 1
   26863    25901    25976 1
   26864    25901    25977 1
   26865    25902    25903 1
   26866    25902    25978 1
   26867    25902    25979 1
   26868    25903    25904 1
   26869    25903    25980 1
   26870    25903    25981 1
   26871    25904    25905 1
   26872    25904    25982 1
   26873    25904    25983 1
   26874    25905    25906 1
   26875    25905    25984 1
   26876    25905    25985 1
   26877    25906    25986 1
   26878    25906    25987 1
   26879    25906    25988 1
   26880    25989    25990 1
   26881    25989    25996 1
   26882    25989    26032 1
   26883    25990    25991 1
   26884    25990    25994 1
   26885    25991    25992 1
   26886    25991    25995 1
   26887    25992    25993 1
   26888    25993    25994 1
   26889    25993    26004 1
   26890    25994    26000 1
   26891    25995    25996 1
   26892    25995    25999 1
   26893    25996    25997 1
   26894    25997    25998 1
   26895    25997    26001 1
   26896    25998    25999 1
   26897    26002    26003 1
   26898    26002    26010 1
   26899    26003    26004 1
   26900    26003    26011 1
   26901    26004    26005 1
   26902    26005    26006 1
   26903    26005    26009 1
   26904    26006    26007 1
   26905    26007    26008 1
   26906    26008    26009 1
   26907    26009    26010 1
   26908    26010    26144 1
   26909    26012    26013 1
   26910    26012    26053 1
   26911    26012    26054 1
   26912    26012    26055 1
   26913    26013    26014 1
   26914    26013    26056 1
   26915    26013    26057 1
   26916    26014    26015 1
   26917    26014    26058 1
   26918    26014    26059 1
   26919    26015    26016 1
   26920    26015    26060 1
   26921    26015    26061 1
   26922    26016    26017 1
   26923    26016    26062 1
   26924    26016    26063 1
   26925    26017    26018 1
   26926    26017    26064 1
   26927    26017    26065 1
   26928    26018    26019 1
   26929    26018    26066 1
   26930    26018    26067 1
   26931    26019    26020 1
   26932    26019    26068 1
   26933    26019    26069 1
   26934    26020    26021 1
   26935    26020    26070 1
   26936    26020    26071 1
   26937    26021    26022 1
   26938    26021    26072 1
   26939    26021    26073 1
   26940    26022    26023 1
   26941    26022    26031 1
   26942    26022    26074 1
   26943    26023    26024 1
   26944    26023    26075 1
   26945    26023    26076 1
   26946    26024    26025 1
   26947    26024    26077 1
   26948    26024    26078 1
   26949    26025    26026 1
   26950    26025    26079 1
   26951    26025    26080 1
   26952    26026    26027 1
   26953    26026    26081 1
   26954    26026    26082 1
   26955    26027    26028 1
   26956    26027    26083 1
   26957    26027    26084 1
   26958    26028    26029 1
   26959    26028    26085 1
   26960    26028    26086 1
   26961    26029    26030 1
   26962    26029    26087 1
   26963    26029    26088 1
   26964    26030    26089 1
   26965    26030    26090 1
   26966    26030    26091 1
   26967    26031    26032 1
   26968    26031    26092 1
   26969    26031    26093 1
   26970    26032    26033 1
   26971    26033    26034 1
   26972    26033    26094 1
   26973    26033    26095 1
   26974    26034    26035 1
   26975    26034    26043 1
   26976    26034    26096 1
   26977    26035    26036 1
   26978    26035    26097 1
   26979    26035    26098 1
   26980    26036    26037 1
   26981    26036    26099 1
   26982    26036    26100 1
   26983    26037    26038 1
   26984    26037    26101 1
   26985    26037    26102 1
   26986    26038    26039 1
   26987    26038    26103 1
   26988    26038    26104 1
   26989    26039    26040 1
   26990    26039    26105 1
   26991    26039    26106 1
   26992    26040    26041 1
   26993    26040    26107 1
   26994    26040    26108 1
   26995    26041    26042 1
   26996    26041    26109 1
   26997    26041    26110 1
   26998    26042    26111 1
   26999    26042    26112 1
   27000    26042    26113 1
   27001    26043    26044 1
   27002    26043    26114 1
   27003    26043    26115 1
   27004    26044    26045 1
   27005    26044    26116 1
   27006    26044    26117 1
   27007    26045    26046 1
   27008    26045    26118 1
   27009    26045    26119 1
   27010    26046    26047 1
   27011    26046    26120 1
   27012    26046    26121 1
   27013    26047    26048 1
   27014    26047    26122 1
   27015    26047    26123 1
   27016    26048    26049 1
   27017    26048    26124 1
   27018    26048    26125 1
   27019    26049    26050 1
   27020    26049    26126 1
   27021    26049    26127 1
   27022    26050    26051 1
   27023    26050    26128 1
   27024    26050    26129 1
   27025    26051    26052 1
   27026    26051    26130 1
   27027    26051    26131 1
   27028    26052    26132 1
   27029    26052    26133 1
   27030    26052    26134 1
   27031    26135    26136 1
   27032    26135    26142 1
   27033    26135    26178 1
   27034    26136    26137 1
   27035    26136    26140 1
   27036    26137    26138 1
   27037    26137    26141 1
   27038    26138    26139 1
   27039    26139    26140 1
   27040    26139    26150 1
   27041    26140    26146 1
   27042    26141    26142 1
   27043    26141    26145 1
   27044    26142    26143 1
   27045    26143    26144 1
   27046    26143    26147 1
   27047    26144    26145 1
   27048    26148    26149 1
   27049    26148    26156 1
   27050    26149    26150 1
   27051    26149    26157 1
   27052    26150    26151 1
   27053    26151    26152 1
   27054    26151    26155 1
   27055    26152    26153 1
   27056    26153    26154 1
   27057    26154    26155 1
   27058    26155    26156 1
   27059    26156    26290 1
   27060    26158    26159 1
   27061    26158    26199 1
   27062    26158    26200 1
   27063    26158    26201 1
   27064    26159    26160 1
   27065    26159    26202 1
   27066    26159    26203 1
   27067    26160    26161 1
   27068    26160    26204 1
   27069    26160    26205 1
   27070    26161    26162 1
   27071    26161    26206 1
   27072    26161    26207 1
   27073    26162    26163 1
   27074    26162    26208 1
   27075    26162    26209 1
   27076    26163    26164 1
   27077    26163    26210 1
   27078    26163    26211 1
   27079    26164    26165 1
   27080    26164    26212 1
   27081    26164    26213 1
   27082    26165    26166 1
   27083    26165    26214 1
   27084    26165    26215 1
   27085    26166    26167 1
   27086    26166    26216 1
   27087    26166    26217 1
   27088    26167    26168 1
   27089    26167    26218 1
   27090    26167    26219 1
   27091    26168    26169 1
   27092    26168    26177 1
   27093    26168    26220 1
   27094    26169    26170 1
   27095    26169    26221 1
   27096    26169    26222 1
   27097    26170    26171 1
   27098    26170    26223 1
   27099    26170    26224 1
   27100    26171    26172 1
   27101    26171    26225 1
   27102    26171    26226 1
   27103    26172    26173 1
   27104    26172    26227 1
   27105    26172    26228 1
   27106    26173    26174 1
   27107    26173    26229 1
   27108    26173    26230 1
   27109    26174    26175 1
   27110    26174    26231 1
   27111    26174    26232 1
   27112    26175    26176 1
   27113    26175    26233 1
   27114    26175    26234 1
   27115    26176    26235 1
   27116    26176    26236 1
   27117    26176    26237 1
   27118    26177    26178 1
   27119    26177    26238 1
   27120    26177    26239 1
   27121    26178    26179 1
   27122    26179    26180 1
   27123    26179    26240 1
   27124    26179    26241 1
   27125    26180    26181 1
   27126    26180    26189 1
   27127    26180    26242 1
   27128    26181    26182 1
   27129    26181    26243 1
   27130    26181    26244 1
   27131    26182    26183 1
   27132    26182    26245 1
   27133    26182    26246 1
   27134    26183    26184 1
   27135    26183    26247 1
   27136    26183    26248 1
   27137    26184    26185 1
   27138    26184    26249 1
   27139    26184    26250 1
   27140    26185    26186 1
   27141    26185    26251 1
   27142    26185    26252 1
   27143    26186    26187 1
   27144    26186    26253 1
   27145    26186    26254 1
   27146    26187    26188 1
   27147    26187    26255 1
   27148    26187    26256 1
   27149    26188    26257 1
   27150    26188    26258 1
   27151    26188    26259 1
   27152    26189    26190 1
   27153    26189    26260 1
   27154    26189    26261 1
   27155    26190    26191 1
   27156    26190    26262 1
   27157    26190    26263 1
   27158    26191    26192 1
   27159    26191    26264 1
   27160    26191    26265 1
   27161    26192    26193 1
   27162    26192    26266 1
   27163    26192    26267 1
   27164    26193    26194 1
   27165    26193    26268 1
   27166    26193    26269 1
   27167    26194    26195 1
   27168    26194    26270 1
   27169    26194    26271 1
   27170    26195    26196 1
   27171    26195    26272 1
   27172    26195    26273 1
   27173    26196    26197 1
   27174    26196    26274 1
   27175    26196    26275 1
   27176    26197    26198 1
   27177    26197    26276 1
   27178    26197    26277 1
   27179    26198    26278 1
   27180    26198    26279 1
   27181    26198    26280 1
   27182    26281    26282 1
   27183    26281    26288 1
   27184    26281    26324 1
   27185    26282    26283 1
   27186    26282    26286 1
   27187    26283    26284 1
   27188    26283    26287 1
   27189    26284    26285 1
   27190    26285    26286 1
   27191    26285    26296 1
   27192    26286    26292 1
   27193    26287    26288 1
   27194    26287    26291 1
   27195    26288    26289 1
   27196    26289    26290 1
   27197    26289    26293 1
   27198    26290    26291 1
   27199    26294    26295 1
   27200    26294    26302 1
   27201    26295    26296 1
   27202    26295    26303 1
   27203    26296    26297 1
   27204    26297    26298 1
   27205    26297    26301 1
   27206    26298    26299 1
   27207    26299    26300 1
   27208    26300    26301 1
   27209    26301    26302 1
   27210    26302    26436 1
   27211    26304    26305 1
   27212    26304    26345 1
   27213    26304    26346 1
   27214    26304    26347 1
   27215    26305    26306 1
   27216    26305    26348 1
   27217    26305    26349 1
   27218    26306    26307 1
   27219    26306    26350 1
   27220    26306    26351 1
   27221    26307    26308 1
   27222    26307    26352 1
   27223    26307    26353 1
   27224    26308    26309 1
   27225    26308    26354 1
   27226    26308    26355 1
   27227    26309    26310 1
   27228    26309    26356 1
   27229    26309    26357 1
   27230    26310    26311 1
   27231    26310    26358 1
   27232    26310    26359 1
   27233    26311    26312 1
   27234    26311    26360 1
   27235    26311    26361 1
   27236    26312    26313 1
   27237    26312    26362 1
   27238    26312    26363 1
   27239    26313    26314 1
   27240    26313    26364 1
   27241    26313    26365 1
   27242    26314    26315 1
   27243    26314    26323 1
   27244    26314    26366 1
   27245    26315    26316 1
   27246    26315    26367 1
   27247    26315    26368 1
   27248    26316    26317 1
   27249    26316    26369 1
   27250    26316    26370 1
   27251    26317    26318 1
   27252    26317    26371 1
   27253    26317    26372 1
   27254    26318    26319 1
   27255    26318    26373 1
   27256    26318    26374 1
   27257    26319    26320 1
   27258    26319    26375 1
   27259    26319    26376 1
   27260    26320    26321 1
   27261    26320    26377 1
   27262    26320    26378 1
   27263    26321    26322 1
   27264    26321    26379 1
   27265    26321    26380 1
   27266    26322    26381 1
   27267    26322    26382 1
   27268    26322    26383 1
   27269    26323    26324 1
   27270    26323    26384 1
   27271    26323    26385 1
   27272    26324    26325 1
   27273    26325    26326 1
   27274    26325    26386 1
   27275    26325    26387 1
   27276    26326    26327 1
   27277    26326    26335 1
   27278    26326    26388 1
   27279    26327    26328 1
   27280    26327    26389 1
   27281    26327    26390 1
   27282    26328    26329 1
   27283    26328    26391 1
   27284    26328    26392 1
   27285    26329    26330 1
   27286    26329    26393 1
   27287    26329    26394 1
   27288    26330    26331 1
   27289    26330    26395 1
   27290    26330    26396 1
   27291    26331    26332 1
   27292    26331    26397 1
   27293    26331    26398 1
   27294    26332    26333 1
   27295    26332    26399 1
   27296    26332    26400 1
   27297    26333    26334 1
   27298    26333    26401 1
   27299    26333    26402 1
   27300    26334    26403 1
   27301    26334    26404 1
   27302    26334    26405 1
   27303    26335    26336 1
   27304    26335    26406 1
   27305    26335    26407 1
   27306    26336    26337 1
   27307    26336    26408 1
   27308    26336    26409 1
   27309    26337    26338 1
   27310    26337    26410 1
   27311    26337    26411 1
   27312    26338    26339 1
   27313    26338    26412 1
   27314    26338    26413 1
   27315    26339    26340 1
   27316    26339    26414 1
   27317    26339    26415 1
   27318    26340    26341 1
   27319    26340    26416 1
   27320    26340    26417 1
   27321    26341    26342 1
   27322    26341    26418 1
   27323    26341    26419 1
   27324    26342    26343 1
   27325    26342    26420 1
   27326    26342    26421 1
   27327    26343    26344 1
   27328    26343    26422 1
   27329    26343    26423 1
   27330    26344    26424 1
   27331    26344    26425 1
   27332    26344    26426 1
   27333    26427    26428 1
   27334    26427    26434 1
   27335    26427    26470 1
   27336    26428    26429 1
   27337    26428    26432 1
   27338    26429    26430 1
   27339    26429    26433 1
   27340    26430    26431 1
   27341    26431    26432 1
   27342    26431    26442 1
   27343    26432    26438 1
   27344    26433    26434 1
   27345    26433    26437 1
   27346    26434    26435 1
   27347    26435    26436 1
   27348    26435    26439 1
   27349    26436    26437 1
   27350    26440    26441 1
   27351    26440    26448 1
   27352    26441    26442 1
   27353    26441    26449 1
   27354    26442    26443 1
   27355    26443    26444 1
   27356    26443    26447 1
   27357    26444    26445 1
   27358    26445    26446 1
   27359    26446    26447 1
   27360    26447    26448 1
   27361    26448    26582 1
   27362    26450    26451 1
   27363    26450    26491 1
   27364    26450    26492 1
   27365    26450    26493 1
   27366    26451    26452 1
   27367    26451    26494 1
   27368    26451    26495 1
   27369    26452    26453 1
   27370    26452    26496 1
   27371    26452    26497 1
   27372    26453    26454 1
   27373    26453    26498 1
   27374    26453    26499 1
   27375    26454    26455 1
   27376    26454    26500 1
   27377    26454    26501 1
   27378    26455    26456 1
   27379    26455    26502 1
   27380    26455    26503 1
   27381    26456    26457 1
   27382    26456    26504 1
   27383    26456    26505 1
   27384    26457    26458 1
   27385    26457    26506 1
   27386    26457    26507 1
   27387    26458    26459 1
   27388    26458    26508 1
   27389    26458    26509 1
   27390    26459    26460 1
   27391    26459    26510 1
   27392    26459    26511 1
   27393    26460    26461 1
   27394    26460    26469 1
   27395    26460    26512 1
   27396    26461    26462 1
   27397    26461    26513 1
   27398    26461    26514 1
   27399    26462    26463 1
   27400    26462    26515 1
   27401    26462    26516 1
   27402    26463    26464 1
   27403    26463    26517 1
   27404    26463    26518 1
   27405    26464    26465 1
   27406    26464    26519 1
   27407    26464    26520 1
   27408    26465    26466 1
   27409    26465    26521 1
   27410    26465    26522 1
   27411    26466    26467 1
   27412    26466    26523 1
   27413    26466    26524 1
   27414    26467    26468 1
   27415    26467    26525 1
   27416    26467    26526 1
   27417    26468    26527 1
   27418    26468    26528 1
   27419    26468    26529 1
   27420    26469    26470 1
   27421    26469    26530 1
   27422    26469    26531 1
   27423    26470    26471 1
   27424    26471    26472 1
   27425    26471    26532 1
   27426    26471    26533 1
   27427    26472    26473 1
   27428    26472    26481 1
   27429    26472    26534 1
   27430    26473    26474 1
   27431    26473    26535 1
   27432    26473    26536 1
   27433    26474    26475 1
   27434    26474    26537 1
   27435    26474    26538 1
   27436    26475    26476 1
   27437    26475    26539 1
   27438    26475    26540 1
   27439    26476    26477 1
   27440    26476    26541 1
   27441    26476    26542 1
   27442    26477    26478 1
   27443    26477    26543 1
   27444    26477    26544 1
   27445    26478    26479 1
   27446    26478    26545 1
   27447    26478    26546 1
   27448    26479    26480 1
   27449    26479    26547 1
   27450    26479    26548 1
   27451    26480    26549 1
   27452    26480    26550 1
   27453    26480    26551 1
   27454    26481    26482 1
   27455    26481    26552 1
   27456    26481    26553 1
   27457    26482    26483 1
   27458    26482    26554 1
   27459    26482    26555 1
   27460    26483    26484 1
   27461    26483    26556 1
   27462    26483    26557 1
   27463    26484    26485 1
   27464    26484    26558 1
   27465    26484    26559 1
   27466    26485    26486 1
   27467    26485    26560 1
   27468    26485    26561 1
   27469    26486    26487 1
   27470    26486    26562 1
   27471    26486    26563 1
   27472    26487    26488 1
   27473    26487    26564 1
   27474    26487    26565 1
   27475    26488    26489 1
   27476    26488    26566 1
   27477    26488    26567 1
   27478    26489    26490 1
   27479    26489    26568 1
   27480    26489    26569 1
   27481    26490    26570 1
   27482    26490    26571 1
   27483    26490    26572 1
   27484    26573    26574 1
   27485    26573    26580 1
   27486    26573    26616 1
   27487    26574    26575 1
   27488    26574    26578 1
   27489    26575    26576 1
   27490    26575    26579 1
   27491    26576    26577 1
   27492    26577    26578 1
   27493    26577    26588 1
   27494    26578    26584 1
   27495    26579    26580 1
   27496    26579    26583 1
   27497    26580    26581 1
   27498    26581    26582 1
   27499    26581    26585 1
   27500    26582    26583 1
   27501    26586    26587 1
   27502    26586    26594 1
   27503    26587    26588 1
   27504    26587    26595 1
   27505    26588    26589 1
   27506    26589    26590 1
   27507    26589    26593 1
   27508    26590    26591 1
   27509    26591    26592 1
   27510    26592    26593 1
   27511    26593    26594 1
   27512    26594    26728 1
   27513    26596    26597 1
   27514    26596    26637 1
   27515    26596    26638 1
   27516    26596    26639 1
   27517    26597    26598 1
   27518    26597    26640 1
   27519    26597    26641 1
   27520    26598    26599 1
   27521    26598    26642 1
   27522    26598    26643 1
   27523    26599    26600 1
   27524    26599    26644 1
   27525    26599    26645 1
   27526    26600    26601 1
   27527    26600    26646 1
   27528    26600    26647 1
   27529    26601    26602 1
   27530    26601    26648 1
   27531    26601    26649 1
   27532    26602    26603 1
   27533    26602    26650 1
   27534    26602    26651 1
   27535    26603    26604 1
   27536    26603    26652 1
   27537    26603    26653 1
   27538    26604    26605 1
   27539    26604    26654 1
   27540    26604    26655 1
   27541    26605    26606 1
   27542    26605    26656 1
   27543    26605    26657 1
   27544    26606    26607 1
   27545    26606    26615 1
   27546    26606    26658 1
   27547    26607    26608 1
   27548    26607    26659 1
   27549    26607    26660 1
   27550    26608    26609 1
   27551    26608    26661 1
   27552    26608    26662 1
   27553    26609    26610 1
   27554    26609    26663 1
   27555    26609    26664 1
   27556    26610    26611 1
   27557    26610    26665 1
   27558    26610    26666 1
   27559    26611    26612 1
   27560    26611    26667 1
   27561    26611    26668 1
   27562    26612    26613 1
   27563    26612    26669 1
   27564    26612    26670 1
   27565    26613    26614 1
   27566    26613    26671 1
   27567    26613    26672 1
   27568    26614    26673 1
   27569    26614    26674 1
   27570    26614    26675 1
   27571    26615    26616 1
   27572    26615    26676 1
   27573    26615    26677 1
   27574    26616    26617 1
   27575    26617    26618 1
   27576    26617    26678 1
   27577    26617    26679 1
   27578    26618    26619 1
   27579    26618    26627 1
   27580    26618    26680 1
   27581    26619    26620 1
   27582    26619    26681 1
   27583    26619    26682 1
   27584    26620    26621 1
   27585    26620    26683 1
   27586    26620    26684 1
   27587    26621    26622 1
   27588    26621    26685 1
   27589    26621    26686 1
   27590    26622    26623 1
   27591    26622    26687 1
   27592    26622    26688 1
   27593    26623    26624 1
   27594    26623    26689 1
   27595    26623    26690 1
   27596    26624    26625 1
   27597    26624    26691 1
   27598    26624    26692 1
   27599    26625    26626 1
   27600    26625    26693 1
   27601    26625    26694 1
   27602    26626    26695 1
   27603    26626    26696 1
   27604    26626    26697 1
   27605    26627    26628 1
   27606    26627    26698 1
   27607    26627    26699 1
   27608    26628    26629 1
   27609    26628    26700 1
   27610    26628    26701 1
   27611    26629    26630 1
   27612    26629    26702 1
   27613    26629    26703 1
   27614    26630    26631 1
   27615    26630    26704 1
   27616    26630    26705 1
   27617    26631    26632 1
   27618    26631    26706 1
   27619    26631    26707 1
   27620    26632    26633 1
   27621    26632    26708 1
   27622    26632    26709 1
   27623    26633    26634 1
   27624    26633    26710 1
   27625    26633    26711 1
   27626    26634    26635 1
   27627    26634    26712 1
   27628    26634    26713 1
   27629    26635    26636 1
   27630    26635    26714 1
   27631    26635    26715 1
   27632    26636    26716 1
   27633    26636    26717 1
   27634    26636    26718 1
   27635    26719    26720 1
   27636    26719    26726 1
   27637    26719    26762 1
   27638    26720    26721 1
   27639    26720    26724 1
   27640    26721    26722 1
   27641    26721    26725 1
   27642    26722    26723 1
   27643    26723    26724 1
   27644    26723    26734 1
   27645    26724    26730 1
   27646    26725    26726 1
   27647    26725    26729 1
   27648    26726    26727 1
   27649    26727    26728 1
   27650    26727    26731 1
   27651    26728    26729 1
   27652    26732    26733 1
   27653    26732    26740 1
   27654    26733    26734 1
   27655    26733    26741 1
   27656    26734    26735 1
   27657    26735    26736 1
   27658    26735    26739 1
   27659    26736    26737 1
   27660    26737    26738 1
   27661    26738    26739 1
   27662    26739    26740 1
   27663    26740    26874 1
   27664    26742    26743 1
   27665    26742    26783 1
   27666    26742    26784 1
   27667    26742    26785 1
   27668    26743    26744 1
   27669    26743    26786 1
   27670    26743    26787 1
   27671    26744    26745 1
   27672    26744    26788 1
   27673    26744    26789 1
   27674    26745    26746 1
   27675    26745    26790 1
   27676    26745    26791 1
   27677    26746    26747 1
   27678    26746    26792 1
   27679    26746    26793 1
   27680    26747    26748 1
   27681    26747    26794 1
   27682    26747    26795 1
   27683    26748    26749 1
   27684    26748    26796 1
   27685    26748    26797 1
   27686    26749    26750 1
   27687    26749    26798 1
   27688    26749    26799 1
   27689    26750    26751 1
   27690    26750    26800 1
   27691    26750    26801 1
   27692    26751    26752 1
   27693    26751    26802 1
   27694    26751    26803 1
   27695    26752    26753 1
   27696    26752    26761 1
   27697    26752    26804 1
   27698    26753    26754 1
   27699    26753    26805 1
   27700    26753    26806 1
   27701    26754    26755 1
   27702    26754    26807 1
   27703    26754    26808 1
   27704    26755    26756 1
   27705    26755    26809 1
   27706    26755    26810 1
   27707    26756    26757 1
   27708    26756    26811 1
   27709    26756    26812 1
   27710    26757    26758 1
   27711    26757    26813 1
   27712    26757    26814 1
   27713    26758    26759 1
   27714    26758    26815 1
   27715    26758    26816 1
   27716    26759    26760 1
   27717    26759    26817 1
   27718    26759    26818 1
   27719    26760    26819 1
   27720    26760    26820 1
   27721    26760    26821 1
   27722    26761    26762 1
   27723    26761    26822 1
   27724    26761    26823 1
   27725    26762    26763 1
   27726    26763    26764 1
   27727    26763    26824 1
   27728    26763    26825 1
   27729    26764    26765 1
   27730    26764    26773 1
   27731    26764    26826 1
   27732    26765    26766 1
   27733    26765    26827 1
   27734    26765    26828 1
   27735    26766    26767 1
   27736    26766    26829 1
   27737    26766    26830 1
   27738    26767    26768 1
   27739    26767    26831 1
   27740    26767    26832 1
   27741    26768    26769 1
   27742    26768    26833 1
   27743    26768    26834 1
   27744    26769    26770 1
   27745    26769    26835 1
   27746    26769    26836 1
   27747    26770    26771 1
   27748    26770    26837 1
   27749    26770    26838 1
   27750    26771    26772 1
   27751    26771    26839 1
   27752    26771    26840 1
   27753    26772    26841 1
   27754    26772    26842 1
   27755    26772    26843 1
   27756    26773    26774 1
   27757    26773    26844 1
   27758    26773    26845 1
   27759    26774    26775 1
   27760    26774    26846 1
   27761    26774    26847 1
   27762    26775    26776 1
   27763    26775    26848 1
   27764    26775    26849 1
   27765    26776    26777 1
   27766    26776    26850 1
   27767    26776    26851 1
   27768    26777    26778 1
   27769    26777    26852 1
   27770    26777    26853 1
   27771    26778    26779 1
   27772    26778    26854 1
   27773    26778    26855 1
   27774    26779    26780 1
   27775    26779    26856 1
   27776    26779    26857 1
   27777    26780    26781 1
   27778    26780    26858 1
   27779    26780    26859 1
   27780    26781    26782 1
   27781    26781    26860 1
   27782    26781    26861 1
   27783    26782    26862 1
   27784    26782    26863 1
   27785    26782    26864 1
   27786    26865    26866 1
   27787    26865    26872 1
   27788    26865    26908 1
   27789    26866    26867 1
   27790    26866    26870 1
   27791    26867    26868 1
   27792    26867    26871 1
   27793    26868    26869 1
   27794    26869    26870 1
   27795    26869    26880 1
   27796    26870    26876 1
   27797    26871    26872 1
   27798    26871    26875 1
   27799    26872    26873 1
   27800    26873    26874 1
   27801    26873    26877 1
   27802    26874    26875 1
   27803    26878    26879 1
   27804    26878    26886 1
   27805    26879    26880 1
   27806    26879    26887 1
   27807    26880    26881 1
   27808    26881    26882 1
   27809    26881    26885 1
   27810    26882    26883 1
   27811    26883    26884 1
   27812    26884    26885 1
   27813    26885    26886 1
   27814    26886    27020 1
   27815    26888    26889 1
   27816    26888    26929 1
   27817    26888    26930 1
   27818    26888    26931 1
   27819    26889    26890 1
   27820    26889    26932 1
   27821    26889    26933 1
   27822    26890    26891 1
   27823    26890    26934 1
   27824    26890    26935 1
   27825    26891    26892 1
   27826    26891    26936 1
   27827    26891    26937 1
   27828    26892    26893 1
   27829    26892    26938 1
   27830    26892    26939 1
   27831    26893    26894 1
   27832    26893    26940 1
   27833    26893    26941 1
   27834    26894    26895 1
   27835    26894    26942 1
   27836    26894    26943 1
   27837    26895    26896 1
   27838    26895    26944 1
   27839    26895    26945 1
   27840    26896    26897 1
   27841    26896    26946 1
   27842    26896    26947 1
   27843    26897    26898 1
   27844    26897    26948 1
   27845    26897    26949 1
   27846    26898    26899 1
   27847    26898    26907 1
   27848    26898    26950 1
   27849    26899    26900 1
   27850    26899    26951 1
   27851    26899    26952 1
   27852    26900    26901 1
   27853    26900    26953 1
   27854    26900    26954 1
   27855    26901    26902 1
   27856    26901    26955 1
   27857    26901    26956 1
   27858    26902    26903 1
   27859    26902    26957 1
   27860    26902    26958 1
   27861    26903    26904 1
   27862    26903    26959 1
   27863    26903    26960 1
   27864    26904    26905 1
   27865    26904    26961 1
   27866    26904    26962 1
   27867    26905    26906 1
   27868    26905    26963 1
   27869    26905    26964 1
   27870    26906    26965 1
   27871    26906    26966 1
   27872    26906    26967 1
   27873    26907    26908 1
   27874    26907    26968 1
   27875    26907    26969 1
   27876    26908    26909 1
   27877    26909    26910 1
   27878    26909    26970 1
   27879    26909    26971 1
   27880    26910    26911 1
   27881    26910    26919 1
   27882    26910    26972 1
   27883    26911    26912 1
   27884    26911    26973 1
   27885    26911    26974 1
   27886    26912    26913 1
   27887    26912    26975 1
   27888    26912    26976 1
   27889    26913    26914 1
   27890    26913    26977 1
   27891    26913    26978 1
   27892    26914    26915 1
   27893    26914    26979 1
   27894    26914    26980 1
   27895    26915    26916 1
   27896    26915    26981 1
   27897    26915    26982 1
   27898    26916    26917 1
   27899    26916    26983 1
   27900    26916    26984 1
   27901    26917    26918 1
   27902    26917    26985 1
   27903    26917    26986 1
   27904    26918    26987 1
   27905    26918    26988 1
   27906    26918    26989 1
   27907    26919    26920 1
   27908    26919    26990 1
   27909    26919    26991 1
   27910    26920    26921 1
   27911    26920    26992 1
   27912    26920    26993 1
   27913    26921    26922 1
   27914    26921    26994 1
   27915    26921    26995 1
   27916    26922    26923 1
   27917    26922    26996 1
   27918    26922    26997 1
   27919    26923    26924 1
   27920    26923    26998 1
   27921    26923    26999 1
   27922    26924    26925 1
   27923    26924    27000 1
   27924    26924    27001 1
   27925    26925    26926 1
   27926    26925    27002 1
   27927    26925    27003 1
   27928    26926    26927 1
   27929    26926    27004 1
   27930    26926    27005 1
   27931    26927    26928 1
   27932    26927    27006 1
   27933    26927    27007 1
   27934    26928    27008 1
   27935    26928    27009 1
   27936    26928    27010 1
   27937    27011    27012 1
   27938    27011    27018 1
   27939    27011    27054 1
   27940    27012    27013 1
   27941    27012    27016 1
   27942    27013    27014 1
   27943    27013    27017 1
   27944    27014    27015 1
   27945    27015    27016 1
   27946    27015    27026 1
   27947    27016    27022 1
   27948    27017    27018 1
   27949    27017    27021 1
   27950    27018    27019 1
   27951    27019    27020 1
   27952    27019    27023 1
   27953    27020    27021 1
   27954    27024    27025 1
   27955    27024    27032 1
   27956    27025    27026 1
   27957    27025    27033 1
   27958    27026    27027 1
   27959    27027    27028 1
   27960    27027    27031 1
   27961    27028    27029 1
   27962    27029    27030 1
   27963    27030    27031 1
   27964    27031    27032 1
   27965    27032    27166 1
   27966    27034    27035 1
   27967    27034    27075 1
   27968    27034    27076 1
   27969    27034    27077 1
   27970    27035    27036 1
   27971    27035    27078 1
   27972    27035    27079 1
   27973    27036    27037 1
   27974    27036    27080 1
   27975    27036    27081 1
   27976    27037    27038 1
   27977    27037    27082 1
   27978    27037    27083 1
   27979    27038    27039 1
   27980    27038    27084 1
   27981    27038    27085 1
   27982    27039    27040 1
   27983    27039    27086 1
   27984    27039    27087 1
   27985    27040    27041 1
   27986    27040    27088 1
   27987    27040    27089 1
   27988    27041    27042 1
   27989    27041    27090 1
   27990    27041    27091 1
   27991    27042    27043 1
   27992    27042    27092 1
   27993    27042    27093 1
   27994    27043    27044 1
   27995    27043    27094 1
   27996    27043    27095 1
   27997    27044    27045 1
   27998    27044    27053 1
   27999    27044    27096 1
   28000    27045    27046 1
   28001    27045    27097 1
   28002    27045    27098 1
   28003    27046    27047 1
   28004    27046    27099 1
   28005    27046    27100 1
   28006    27047    27048 1
   28007    27047    27101 1
   28008    27047    27102 1
   28009    27048    27049 1
   28010    27048    27103 1
   28011    27048    27104 1
   28012    27049    27050 1
   28013    27049    27105 1
   28014    27049    27106 1
   28015    27050    27051 1
   28016    27050    27107 1
   28017    27050    27108 1
   28018    27051    27052 1
   28019    27051    27109 1
   28020    27051    27110 1
   28021    27052    27111 1
   28022    27052    27112 1
   28023    27052    27113 1
   28024    27053    27054 1
   28025    27053    27114 1
   28026    27053    27115 1
   28027    27054    27055 1
   28028    27055    27056 1
   28029    27055    27116 1
   28030    27055    27117 1
   28031    27056    27057 1
   28032    27056    27065 1
   28033    27056    27118 1
   28034    27057    27058 1
   28035    27057    27119 1
   28036    27057    27120 1
   28037    27058    27059 1
   28038    27058    27121 1
   28039    27058    27122 1
   28040    27059    27060 1
   28041    27059    27123 1
   28042    27059    27124 1
   28043    27060    27061 1
   28044    27060    27125 1
   28045    27060    27126 1
   28046    27061    27062 1
   28047    27061    27127 1
   28048    27061    27128 1
   28049    27062    27063 1
   28050    27062    27129 1
   28051    27062    27130 1
   28052    27063    27064 1
   28053    27063    27131 1
   28054    27063    27132 1
   28055    27064    27133 1
   28056    27064    27134 1
   28057    27064    27135 1
   28058    27065    27066 1
   28059    27065    27136 1
   28060    27065    27137 1
   28061    27066    27067 1
   28062    27066    27138 1
   28063    27066    27139 1
   28064    27067    27068 1
   28065    27067    27140 1
   28066    27067    27141 1
   28067    27068    27069 1
   28068    27068    27142 1
   28069    27068    27143 1
   28070    27069    27070 1
   28071    27069    27144 1
   28072    27069    27145 1
   28073    27070    27071 1
   28074    27070    27146 1
   28075    27070    27147 1
   28076    27071    27072 1
   28077    27071    27148 1
   28078    27071    27149 1
   28079    27072    27073 1
   28080    27072    27150 1
   28081    27072    27151 1
   28082    27073    27074 1
   28083    27073    27152 1
   28084    27073    27153 1
   28085    27074    27154 1
   28086    27074    27155 1
   28087    27074    27156 1
   28088    27157    27158 1
   28089    27157    27164 1
   28090    27157    27200 1
   28091    27158    27159 1
   28092    27158    27162 1
   28093    27159    27160 1
   28094    27159    27163 1
   28095    27160    27161 1
   28096    27161    27162 1
   28097    27161    27172 1
   28098    27162    27168 1
   28099    27163    27164 1
   28100    27163    27167 1
   28101    27164    27165 1
   28102    27165    27166 1
   28103    27165    27169 1
   28104    27166    27167 1
   28105    27170    27171 1
   28106    27170    27178 1
   28107    27171    27172 1
   28108    27171    27179 1
   28109    27172    27173 1
   28110    27173    27174 1
   28111    27173    27177 1
   28112    27174    27175 1
   28113    27175    27176 1
   28114    27176    27177 1
   28115    27177    27178 1
   28116    27178    27312 1
   28117    27180    27181 1
   28118    27180    27221 1
   28119    27180    27222 1
   28120    27180    27223 1
   28121    27181    27182 1
   28122    27181    27224 1
   28123    27181    27225 1
   28124    27182    27183 1
   28125    27182    27226 1
   28126    27182    27227 1
   28127    27183    27184 1
   28128    27183    27228 1
   28129    27183    27229 1
   28130    27184    27185 1
   28131    27184    27230 1
   28132    27184    27231 1
   28133    27185    27186 1
   28134    27185    27232 1
   28135    27185    27233 1
   28136    27186    27187 1
   28137    27186    27234 1
   28138    27186    27235 1
   28139    27187    27188 1
   28140    27187    27236 1
   28141    27187    27237 1
   28142    27188    27189 1
   28143    27188    27238 1
   28144    27188    27239 1
   28145    27189    27190 1
   28146    27189    27240 1
   28147    27189    27241 1
   28148    27190    27191 1
   28149    27190    27199 1
   28150    27190    27242 1
   28151    27191    27192 1
   28152    27191    27243 1
   28153    27191    27244 1
   28154    27192    27193 1
   28155    27192    27245 1
   28156    27192    27246 1
   28157    27193    27194 1
   28158    27193    27247 1
   28159    27193    27248 1
   28160    27194    27195 1
   28161    27194    27249 1
   28162    27194    27250 1
   28163    27195    27196 1
   28164    27195    27251 1
   28165    27195    27252 1
   28166    27196    27197 1
   28167    27196    27253 1
   28168    27196    27254 1
   28169    27197    27198 1
   28170    27197    27255 1
   28171    27197    27256 1
   28172    27198    27257 1
   28173    27198    27258 1
   28174    27198    27259 1
   28175    27199    27200 1
   28176    27199    27260 1
   28177    27199    27261 1
   28178    27200    27201 1
   28179    27201    27202 1
   28180    27201    27262 1
   28181    27201    27263 1
   28182    27202    27203 1
   28183    27202    27211 1
   28184    27202    27264 1
   28185    27203    27204 1
   28186    27203    27265 1
   28187    27203    27266 1
   28188    27204    27205 1
   28189    27204    27267 1
   28190    27204    27268 1
   28191    27205    27206 1
   28192    27205    27269 1
   28193    27205    27270 1
   28194    27206    27207 1
   28195    27206    27271 1
   28196    27206    27272 1
   28197    27207    27208 1
   28198    27207    27273 1
   28199    27207    27274 1
   28200    27208    27209 1
   28201    27208    27275 1
   28202    27208    27276 1
   28203    27209    27210 1
   28204    27209    27277 1
   28205    27209    27278 1
   28206    27210    27279 1
   28207    27210    27280 1
   28208    27210    27281 1
   28209    27211    27212 1
   28210    27211    27282 1
   28211    27211    27283 1
   28212    27212    27213 1
   28213    27212    27284 1
   28214    27212    27285 1
   28215    27213    27214 1
   28216    27213    27286 1
   28217    27213    27287 1
   28218    27214    27215 1
   28219    27214    27288 1
   28220    27214    27289 1
   28221    27215    27216 1
   28222    27215    27290 1
   28223    27215    27291 1
   28224    27216    27217 1
   28225    27216    27292 1
   28226    27216    27293 1
   28227    27217    27218 1
   28228    27217    27294 1
   28229    27217    27295 1
   28230    27218    27219 1
   28231    27218    27296 1
   28232    27218    27297 1
   28233    27219    27220 1
   28234    27219    27298 1
   28235    27219    27299 1
   28236    27220    27300 1
   28237    27220    27301 1
   28238    27220    27302 1
   28239    27303    27304 1
   28240    27303    27310 1
   28241    27303    27346 1
   28242    27304    27305 1
   28243    27304    27308 1
   28244    27305    27306 1
   28245    27305    27309 1
   28246    27306    27307 1
   28247    27307    27308 1
   28248    27307    27318 1
   28249    27308    27314 1
   28250    27309    27310 1
   28251    27309    27313 1
   28252    27310    27311 1
   28253    27311    27312 1
   28254    27311    27315 1
   28255    27312    27313 1
   28256    27316    27317 1
   28257    27316    27324 1
   28258    27317    27318 1
   28259    27317    27325 1
   28260    27318    27319 1
   28261    27319    27320 1
   28262    27319    27323 1
   28263    27320    27321 1
   28264    27321    27322 1
   28265    27322    27323 1
   28266    27323    27324 1
   28267    27324    27458 1
   28268    27326    27327 1
   28269    27326    27367 1
   28270    27326    27368 1
   28271    27326    27369 1
   28272    27327    27328 1
   28273    27327    27370 1
   28274    27327    27371 1
   28275    27328    27329 1
   28276    27328    27372 1
   28277    27328    27373 1
   28278    27329    27330 1
   28279    27329    27374 1
   28280    27329    27375 1
   28281    27330    27331 1
   28282    27330    27376 1
   28283    27330    27377 1
   28284    27331    27332 1
   28285    27331    27378 1
   28286    27331    27379 1
   28287    27332    27333 1
   28288    27332    27380 1
   28289    27332    27381 1
   28290    27333    27334 1
   28291    27333    27382 1
   28292    27333    27383 1
   28293    27334    27335 1
   28294    27334    27384 1
   28295    27334    27385 1
   28296    27335    27336 1
   28297    27335    27386 1
   28298    27335    27387 1
   28299    27336    27337 1
   28300    27336    27345 1
   28301    27336    27388 1
   28302    27337    27338 1
   28303    27337    27389 1
   28304    27337    27390 1
   28305    27338    27339 1
   28306    27338    27391 1
   28307    27338    27392 1
   28308    27339    27340 1
   28309    27339    27393 1
   28310    27339    27394 1
   28311    27340    27341 1
   28312    27340    27395 1
   28313    27340    27396 1
   28314    27341    27342 1
   28315    27341    27397 1
   28316    27341    27398 1
   28317    27342    27343 1
   28318    27342    27399 1
   28319    27342    27400 1
   28320    27343    27344 1
   28321    27343    27401 1
   28322    27343    27402 1
   28323    27344    27403 1
   28324    27344    27404 1
   28325    27344    27405 1
   28326    27345    27346 1
   28327    27345    27406 1
   28328    27345    27407 1
   28329    27346    27347 1
   28330    27347    27348 1
   28331    27347    27408 1
   28332    27347    27409 1
   28333    27348    27349 1
   28334    27348    27357 1
   28335    27348    27410 1
   28336    27349    27350 1
   28337    27349    27411 1
   28338    27349    27412 1
   28339    27350    27351 1
   28340    27350    27413 1
   28341    27350    27414 1
   28342    27351    27352 1
   28343    27351    27415 1
   28344    27351    27416 1
   28345    27352    27353 1
   28346    27352    27417 1
   28347    27352    27418 1
   28348    27353    27354 1
   28349    27353    27419 1
   28350    27353    27420 1
   28351    27354    27355 1
   28352    27354    27421 1
   28353    27354    27422 1
   28354    27355    27356 1
   28355    27355    27423 1
   28356    27355    27424 1
   28357    27356    27425 1
   28358    27356    27426 1
   28359    27356    27427 1
   28360    27357    27358 1
   28361    27357    27428 1
   28362    27357    27429 1
   28363    27358    27359 1
   28364    27358    27430 1
   28365    27358    27431 1
   28366    27359    27360 1
   28367    27359    27432 1
   28368    27359    27433 1
   28369    27360    27361 1
   28370    27360    27434 1
   28371    27360    27435 1
   28372    27361    27362 1
   28373    27361    27436 1
   28374    27361    27437 1
   28375    27362    27363 1
   28376    27362    27438 1
   28377    27362    27439 1
   28378    27363    27364 1
   28379    27363    27440 1
   28380    27363    27441 1
   28381    27364    27365 1
   28382    27364    27442 1
   28383    27364    27443 1
   28384    27365    27366 1
   28385    27365    27444 1
   28386    27365    27445 1
   28387    27366    27446 1
   28388    27366    27447 1
   28389    27366    27448 1
   28390    27449    27450 1
   28391    27449    27456 1
   28392    27449    27492 1
   28393    27450    27451 1
   28394    27450    27454 1
   28395    27451    27452 1
   28396    27451    27455 1
   28397    27452    27453 1
   28398    27453    27454 1
   28399    27453    27464 1
   28400    27454    27460 1
   28401    27455    27456 1
   28402    27455    27459 1
   28403    27456    27457 1
   28404    27457    27458 1
   28405    27457    27461 1
   28406    27458    27459 1
   28407    27462    27463 1
   28408    27462    27470 1
   28409    27463    27464 1
   28410    27463    27471 1
   28411    27464    27465 1
   28412    27465    27466 1
   28413    27465    27469 1
   28414    27466    27467 1
   28415    27467    27468 1
   28416    27468    27469 1
   28417    27469    27470 1
   28418    27470    27604 1
   28419    27472    27473 1
   28420    27472    27513 1
   28421    27472    27514 1
   28422    27472    27515 1
   28423    27473    27474 1
   28424    27473    27516 1
   28425    27473    27517 1
   28426    27474    27475 1
   28427    27474    27518 1
   28428    27474    27519 1
   28429    27475    27476 1
   28430    27475    27520 1
   28431    27475    27521 1
   28432    27476    27477 1
   28433    27476    27522 1
   28434    27476    27523 1
   28435    27477    27478 1
   28436    27477    27524 1
   28437    27477    27525 1
   28438    27478    27479 1
   28439    27478    27526 1
   28440    27478    27527 1
   28441    27479    27480 1
   28442    27479    27528 1
   28443    27479    27529 1
   28444    27480    27481 1
   28445    27480    27530 1
   28446    27480    27531 1
   28447    27481    27482 1
   28448    27481    27532 1
   28449    27481    27533 1
   28450    27482    27483 1
   28451    27482    27491 1
   28452    27482    27534 1
   28453    27483    27484 1
   28454    27483    27535 1
   28455    27483    27536 1
   28456    27484    27485 1
   28457    27484    27537 1
   28458    27484    27538 1
   28459    27485    27486 1
   28460    27485    27539 1
   28461    27485    27540 1
   28462    27486    27487 1
   28463    27486    27541 1
   28464    27486    27542 1
   28465    27487    27488 1
   28466    27487    27543 1
   28467    27487    27544 1
   28468    27488    27489 1
   28469    27488    27545 1
   28470    27488    27546 1
   28471    27489    27490 1
   28472    27489    27547 1
   28473    27489    27548 1
   28474    27490    27549 1
   28475    27490    27550 1
   28476    27490    27551 1
   28477    27491    27492 1
   28478    27491    27552 1
   28479    27491    27553 1
   28480    27492    27493 1
   28481    27493    27494 1
   28482    27493    27554 1
   28483    27493    27555 1
   28484    27494    27495 1
   28485    27494    27503 1
   28486    27494    27556 1
   28487    27495    27496 1
   28488    27495    27557 1
   28489    27495    27558 1
   28490    27496    27497 1
   28491    27496    27559 1
   28492    27496    27560 1
   28493    27497    27498 1
   28494    27497    27561 1
   28495    27497    27562 1
   28496    27498    27499 1
   28497    27498    27563 1
   28498    27498    27564 1
   28499    27499    27500 1
   28500    27499    27565 1
   28501    27499    27566 1
   28502    27500    27501 1
   28503    27500    27567 1
   28504    27500    27568 1
   28505    27501    27502 1
   28506    27501    27569 1
   28507    27501    27570 1
   28508    27502    27571 1
   28509    27502    27572 1
   28510    27502    27573 1
   28511    27503    27504 1
   28512    27503    27574 1
   28513    27503    27575 1
   28514    27504    27505 1
   28515    27504    27576 1
   28516    27504    27577 1
   28517    27505    27506 1
   28518    27505    27578 1
   28519    27505    27579 1
   28520    27506    27507 1
   28521    27506    27580 1
   28522    27506    27581 1
   28523    27507    27508 1
   28524    27507    27582 1
   28525    27507    27583 1
   28526    27508    27509 1
   28527    27508    27584 1
   28528    27508    27585 1
   28529    27509    27510 1
   28530    27509    27586 1
   28531    27509    27587 1
   28532    27510    27511 1
   28533    27510    27588 1
   28534    27510    27589 1
   28535    27511    27512 1
   28536    27511    27590 1
   28537    27511    27591 1
   28538    27512    27592 1
   28539    27512    27593 1
   28540    27512    27594 1
   28541    27595    27596 1
   28542    27595    27602 1
   28543    27595    27638 1
   28544    27596    27597 1
   28545    27596    27600 1
   28546    27597    27598 1
   28547    27597    27601 1
   28548    27598    27599 1
   28549    27599    27600 1
   28550    27599    27610 1
   28551    27600    27606 1
   28552    27601    27602 1
   28553    27601    27605 1
   28554    27602    27603 1
   28555    27603    27604 1
   28556    27603    27607 1
   28557    27604    27605 1
   28558    27608    27609 1
   28559    27608    27616 1
   28560    27609    27610 1
   28561    27609    27617 1
   28562    27610    27611 1
   28563    27611    27612 1
   28564    27611    27615 1
   28565    27612    27613 1
   28566    27613    27614 1
   28567    27614    27615 1
   28568    27615    27616 1
   28569    27616    27750 1
   28570    27618    27619 1
   28571    27618    27659 1
   28572    27618    27660 1
   28573    27618    27661 1
   28574    27619    27620 1
   28575    27619    27662 1
   28576    27619    27663 1
   28577    27620    27621 1
   28578    27620    27664 1
   28579    27620    27665 1
   28580    27621    27622 1
   28581    27621    27666 1
   28582    27621    27667 1
   28583    27622    27623 1
   28584    27622    27668 1
   28585    27622    27669 1
   28586    27623    27624 1
   28587    27623    27670 1
   28588    27623    27671 1
   28589    27624    27625 1
   28590    27624    27672 1
   28591    27624    27673 1
   28592    27625    27626 1
   28593    27625    27674 1
   28594    27625    27675 1
   28595    27626    27627 1
   28596    27626    27676 1
   28597    27626    27677 1
   28598    27627    27628 1
   28599    27627    27678 1
   28600    27627    27679 1
   28601    27628    27629 1
   28602    27628    27637 1
   28603    27628    27680 1
   28604    27629    27630 1
   28605    27629    27681 1
   28606    27629    27682 1
   28607    27630    27631 1
   28608    27630    27683 1
   28609    27630    27684 1
   28610    27631    27632 1
   28611    27631    27685 1
   28612    27631    27686 1
   28613    27632    27633 1
   28614    27632    27687 1
   28615    27632    27688 1
   28616    27633    27634 1
   28617    27633    27689 1
   28618    27633    27690 1
   28619    27634    27635 1
   28620    27634    27691 1
   28621    27634    27692 1
   28622    27635    27636 1
   28623    27635    27693 1
   28624    27635    27694 1
   28625    27636    27695 1
   28626    27636    27696 1
   28627    27636    27697 1
   28628    27637    27638 1
   28629    27637    27698 1
   28630    27637    27699 1
   28631    27638    27639 1
   28632    27639    27640 1
   28633    27639    27700 1
   28634    27639    27701 1
   28635    27640    27641 1
   28636    27640    27649 1
   28637    27640    27702 1
   28638    27641    27642 1
   28639    27641    27703 1
   28640    27641    27704 1
   28641    27642    27643 1
   28642    27642    27705 1
   28643    27642    27706 1
   28644    27643    27644 1
   28645    27643    27707 1
   28646    27643    27708 1
   28647    27644    27645 1
   28648    27644    27709 1
   28649    27644    27710 1
   28650    27645    27646 1
   28651    27645    27711 1
   28652    27645    27712 1
   28653    27646    27647 1
   28654    27646    27713 1
   28655    27646    27714 1
   28656    27647    27648 1
   28657    27647    27715 1
   28658    27647    27716 1
   28659    27648    27717 1
   28660    27648    27718 1
   28661    27648    27719 1
   28662    27649    27650 1
   28663    27649    27720 1
   28664    27649    27721 1
   28665    27650    27651 1
   28666    27650    27722 1
   28667    27650    27723 1
   28668    27651    27652 1
   28669    27651    27724 1
   28670    27651    27725 1
   28671    27652    27653 1
   28672    27652    27726 1
   28673    27652    27727 1
   28674    27653    27654 1
   28675    27653    27728 1
   28676    27653    27729 1
   28677    27654    27655 1
   28678    27654    27730 1
   28679    27654    27731 1
   28680    27655    27656 1
   28681    27655    27732 1
   28682    27655    27733 1
   28683    27656    27657 1
   28684    27656    27734 1
   28685    27656    27735 1
   28686    27657    27658 1
   28687    27657    27736 1
   28688    27657    27737 1
   28689    27658    27738 1
   28690    27658    27739 1
   28691    27658    27740 1
   28692    27741    27742 1
   28693    27741    27748 1
   28694    27741    27784 1
   28695    27742    27743 1
   28696    27742    27746 1
   28697    27743    27744 1
   28698    27743    27747 1
   28699    27744    27745 1
   28700    27745    27746 1
   28701    27745    27756 1
   28702    27746    27752 1
   28703    27747    27748 1
   28704    27747    27751 1
   28705    27748    27749 1
   28706    27749    27750 1
   28707    27749    27753 1
   28708    27750    27751 1
   28709    27754    27755 1
   28710    27754    27762 1
   28711    27755    27756 1
   28712    27755    27763 1
   28713    27756    27757 1
   28714    27757    27758 1
   28715    27757    27761 1
   28716    27758    27759 1
   28717    27759    27760 1
   28718    27760    27761 1
   28719    27761    27762 1
   28720    27762    27896 1
   28721    27764    27765 1
   28722    27764    27805 1
   28723    27764    27806 1
   28724    27764    27807 1
   28725    27765    27766 1
   28726    27765    27808 1
   28727    27765    27809 1
   28728    27766    27767 1
   28729    27766    27810 1
   28730    27766    27811 1
   28731    27767    27768 1
   28732    27767    27812 1
   28733    27767    27813 1
   28734    27768    27769 1
   28735    27768    27814 1
   28736    27768    27815 1
   28737    27769    27770 1
   28738    27769    27816 1
   28739    27769    27817 1
   28740    27770    27771 1
   28741    27770    27818 1
   28742    27770    27819 1
   28743    27771    27772 1
   28744    27771    27820 1
   28745    27771    27821 1
   28746    27772    27773 1
   28747    27772    27822 1
   28748    27772    27823 1
   28749    27773    27774 1
   28750    27773    27824 1
   28751    27773    27825 1
   28752    27774    27775 1
   28753    27774    27783 1
   28754    27774    27826 1
   28755    27775    27776 1
   28756    27775    27827 1
   28757    27775    27828 1
   28758    27776    27777 1
   28759    27776    27829 1
   28760    27776    27830 1
   28761    27777    27778 1
   28762    27777    27831 1
   28763    27777    27832 1
   28764    27778    27779 1
   28765    27778    27833 1
   28766    27778    27834 1
   28767    27779    27780 1
   28768    27779    27835 1
   28769    27779    27836 1
   28770    27780    27781 1
   28771    27780    27837 1
   28772    27780    27838 1
   28773    27781    27782 1
   28774    27781    27839 1
   28775    27781    27840 1
   28776    27782    27841 1
   28777    27782    27842 1
   28778    27782    27843 1
   28779    27783    27784 1
   28780    27783    27844 1
   28781    27783    27845 1
   28782    27784    27785 1
   28783    27785    27786 1
   28784    27785    27846 1
   28785    27785    27847 1
   28786    27786    27787 1
   28787    27786    27795 1
   28788    27786    27848 1
   28789    27787    27788 1
   28790    27787    27849 1
   28791    27787    27850 1
   28792    27788    27789 1
   28793    27788    27851 1
   28794    27788    27852 1
   28795    27789    27790 1
   28796    27789    27853 1
   28797    27789    27854 1
   28798    27790    27791 1
   28799    27790    27855 1
   28800    27790    27856 1
   28801    27791    27792 1
   28802    27791    27857 1
   28803    27791    27858 1
   28804    27792    27793 1
   28805    27792    27859 1
   28806    27792    27860 1
   28807    27793    27794 1
   28808    27793    27861 1
   28809    27793    27862 1
   28810    27794    27863 1
   28811    27794    27864 1
   28812    27794    27865 1
   28813    27795    27796 1
   28814    27795    27866 1
   28815    27795    27867 1
   28816    27796    27797 1
   28817    27796    27868 1
   28818    27796    27869 1
   28819    27797    27798 1
   28820    27797    27870 1
   28821    27797    27871 1
   28822    27798    27799 1
   28823    27798    27872 1
   28824    27798    27873 1
   28825    27799    27800 1
   28826    27799    27874 1
   28827    27799    27875 1
   28828    27800    27801 1
   28829    27800    27876 1
   28830    27800    27877 1
   28831    27801    27802 1
   28832    27801    27878 1
   28833    27801    27879 1
   28834    27802    27803 1
   28835    27802    27880 1
   28836    27802    27881 1
   28837    27803    27804 1
   28838    27803    27882 1
   28839    27803    27883 1
   28840    27804    27884 1
   28841    27804    27885 1
   28842    27804    27886 1
   28843    27887    27888 1
   28844    27887    27894 1
   28845    27887    27930 1
   28846    27888    27889 1
   28847    27888    27892 1
   28848    27889    27890 1
   28849    27889    27893 1
   28850    27890    27891 1
   28851    27891    27892 1
   28852    27891    27902 1
   28853    27892    27898 1
   28854    27893    27894 1
   28855    27893    27897 1
   28856    27894    27895 1
   28857    27895    27896 1
   28858    27895    27899 1
   28859    27896    27897 1
   28860    27900    27901 1
   28861    27900    27908 1
   28862    27901    27902 1
   28863    27901    27909 1
   28864    27902    27903 1
   28865    27903    27904 1
   28866    27903    27907 1
   28867    27904    27905 1
   28868    27905    27906 1
   28869    27906    27907 1
   28870    27907    27908 1
   28871    27908    28042 1
   28872    27910    27911 1
   28873    27910    27951 1
   28874    27910    27952 1
   28875    27910    27953 1
   28876    27911    27912 1
   28877    27911    27954 1
   28878    27911    27955 1
   28879    27912    27913 1
   28880    27912    27956 1
   28881    27912    27957 1
   28882    27913    27914 1
   28883    27913    27958 1
   28884    27913    27959 1
   28885    27914    27915 1
   28886    27914    27960 1
   28887    27914    27961 1
   28888    27915    27916 1
   28889    27915    27962 1
   28890    27915    27963 1
   28891    27916    27917 1
   28892    27916    27964 1
   28893    27916    27965 1
   28894    27917    27918 1
   28895    27917    27966 1
   28896    27917    27967 1
   28897    27918    27919 1
   28898    27918    27968 1
   28899    27918    27969 1
   28900    27919    27920 1
   28901    27919    27970 1
   28902    27919    27971 1
   28903    27920    27921 1
   28904    27920    27929 1
   28905    27920    27972 1
   28906    27921    27922 1
   28907    27921    27973 1
   28908    27921    27974 1
   28909    27922    27923 1
   28910    27922    27975 1
   28911    27922    27976 1
   28912    27923    27924 1
   28913    27923    27977 1
   28914    27923    27978 1
   28915    27924    27925 1
   28916    27924    27979 1
   28917    27924    27980 1
   28918    27925    27926 1
   28919    27925    27981 1
   28920    27925    27982 1
   28921    27926    27927 1
   28922    27926    27983 1
   28923    27926    27984 1
   28924    27927    27928 1
   28925    27927    27985 1
   28926    27927    27986 1
   28927    27928    27987 1
   28928    27928    27988 1
   28929    27928    27989 1
   28930    27929    27930 1
   28931    27929    27990 1
   28932    27929    27991 1
   28933    27930    27931 1
   28934    27931    27932 1
   28935    27931    27992 1
   28936    27931    27993 1
   28937    27932    27933 1
   28938    27932    27941 1
   28939    27932    27994 1
   28940    27933    27934 1
   28941    27933    27995 1
   28942    27933    27996 1
   28943    27934    27935 1
   28944    27934    27997 1
   28945    27934    27998 1
   28946    27935    27936 1
   28947    27935    27999 1
   28948    27935    28000 1
   28949    27936    27937 1
   28950    27936    28001 1
   28951    27936    28002 1
   28952    27937    27938 1
   28953    27937    28003 1
   28954    27937    28004 1
   28955    27938    27939 1
   28956    27938    28005 1
   28957    27938    28006 1
   28958    27939    27940 1
   28959    27939    28007 1
   28960    27939    28008 1
   28961    27940    28009 1
   28962    27940    28010 1
   28963    27940    28011 1
   28964    27941    27942 1
   28965    27941    28012 1
   28966    27941    28013 1
   28967    27942    27943 1
   28968    27942    28014 1
   28969    27942    28015 1
   28970    27943    27944 1
   28971    27943    28016 1
   28972    27943    28017 1
   28973    27944    27945 1
   28974    27944    28018 1
   28975    27944    28019 1
   28976    27945    27946 1
   28977    27945    28020 1
   28978    27945    28021 1
   28979    27946    27947 1
   28980    27946    28022 1
   28981    27946    28023 1
   28982    27947    27948 1
   28983    27947    28024 1
   28984    27947    28025 1
   28985    27948    27949 1
   28986    27948    28026 1
   28987    27948    28027 1
   28988    27949    27950 1
   28989    27949    28028 1
   28990    27949    28029 1
   28991    27950    28030 1
   28992    27950    28031 1
   28993    27950    28032 1
   28994    28033    28034 1
   28995    28033    28040 1
   28996    28033    28076 1
   28997    28034    28035 1
   28998    28034    28038 1
   28999    28035    28036 1
   29000    28035    28039 1
   29001    28036    28037 1
   29002    28037    28038 1
   29003    28037    28048 1
   29004    28038    28044 1
   29005    28039    28040 1
   29006    28039    28043 1
   29007    28040    28041 1
   29008    28041    28042 1
   29009    28041    28045 1
   29010    28042    28043 1
   29011    28046    28047 1
   29012    28046    28054 1
   29013    28047    28048 1
   29014    28047    28055 1
   29015    28048    28049 1
   29016    28049    28050 1
   29017    28049    28053 1
   29018    28050    28051 1
   29019    28051    28052 1
   29020    28052    28053 1
   29021    28053    28054 1
   29022    28054    28188 1
   29023    28056    28057 1
   29024    28056    28097 1
   29025    28056    28098 1
   29026    28056    28099 1
   29027    28057    28058 1
   29028    28057    28100 1
   29029    28057    28101 1
   29030    28058    28059 1
   29031    28058    28102 1
   29032    28058    28103 1
   29033    28059    28060 1
   29034    28059    28104 1
   29035    28059    28105 1
   29036    28060    28061 1
   29037    28060    28106 1
   29038    28060    28107 1
   29039    28061    28062 1
   29040    28061    28108 1
   29041    28061    28109 1
   29042    28062    28063 1
   29043    28062    28110 1
   29044    28062    28111 1
   29045    28063    28064 1
   29046    28063    28112 1
   29047    28063    28113 1
   29048    28064    28065 1
   29049    28064    28114 1
   29050    28064    28115 1
   29051    28065    28066 1
   29052    28065    28116 1
   29053    28065    28117 1
   29054    28066    28067 1
   29055    28066    28075 1
   29056    28066    28118 1
   29057    28067    28068 1
   29058    28067    28119 1
   29059    28067    28120 1
   29060    28068    28069 1
   29061    28068    28121 1
   29062    28068    28122 1
   29063    28069    28070 1
   29064    28069    28123 1
   29065    28069    28124 1
   29066    28070    28071 1
   29067    28070    28125 1
   29068    28070    28126 1
   29069    28071    28072 1
   29070    28071    28127 1
   29071    28071    28128 1
   29072    28072    28073 1
   29073    28072    28129 1
   29074    28072    28130 1
   29075    28073    28074 1
   29076    28073    28131 1
   29077    28073    28132 1
   29078    28074    28133 1
   29079    28074    28134 1
   29080    28074    28135 1
   29081    28075    28076 1
   29082    28075    28136 1
   29083    28075    28137 1
   29084    28076    28077 1
   29085    28077    28078 1
   29086    28077    28138 1
   29087    28077    28139 1
   29088    28078    28079 1
   29089    28078    28087 1
   29090    28078    28140 1
   29091    28079    28080 1
   29092    28079    28141 1
   29093    28079    28142 1
   29094    28080    28081 1
   29095    28080    28143 1
   29096    28080    28144 1
   29097    28081    28082 1
   29098    28081    28145 1
   29099    28081    28146 1
   29100    28082    28083 1
   29101    28082    28147 1
   29102    28082    28148 1
   29103    28083    28084 1
   29104    28083    28149 1
   29105    28083    28150 1
   29106    28084    28085 1
   29107    28084    28151 1
   29108    28084    28152 1
   29109    28085    28086 1
   29110    28085    28153 1
   29111    28085    28154 1
   29112    28086    28155 1
   29113    28086    28156 1
   29114    28086    28157 1
   29115    28087    28088 1
   29116    28087    28158 1
   29117    28087    28159 1
   29118    28088    28089 1
   29119    28088    28160 1
   29120    28088    28161 1
   29121    28089    28090 1
   29122    28089    28162 1
   29123    28089    28163 1
   29124    28090    28091 1
   29125    28090    28164 1
   29126    28090    28165 1
   29127    28091    28092 1
   29128    28091    28166 1
   29129    28091    28167 1
   29130    28092    28093 1
   29131    28092    28168 1
   29132    28092    28169 1
   29133    28093    28094 1
   29134    28093    28170 1
   29135    28093    28171 1
   29136    28094    28095 1
   29137    28094    28172 1
   29138    28094    28173 1
   29139    28095    28096 1
   29140    28095    28174 1
   29141    28095    28175 1
   29142    28096    28176 1
   29143    28096    28177 1
   29144    28096    28178 1
   29145    28179    28180 1
   29146    28179    28186 1
   29147    28179    28222 1
   29148    28180    28181 1
   29149    28180    28184 1
   29150    28181    28182 1
   29151    28181    28185 1
   29152    28182    28183 1
   29153    28183    28184 1
   29154    28183    28194 1
   29155    28184    28190 1
   29156    28185    28186 1
   29157    28185    28189 1
   29158    28186    28187 1
   29159    28187    28188 1
   29160    28187    28191 1
   29161    28188    28189 1
   29162    28192    28193 1
   29163    28192    28200 1
   29164    28193    28194 1
   29165    28193    28201 1
   29166    28194    28195 1
   29167    28195    28196 1
   29168    28195    28199 1
   29169    28196    28197 1
   29170    28197    28198 1
   29171    28198    28199 1
   29172    28199    28200 1
   29173    28200    28334 1
   29174    28202    28203 1
   29175    28202    28243 1
   29176    28202    28244 1
   29177    28202    28245 1
   29178    28203    28204 1
   29179    28203    28246 1
   29180    28203    28247 1
   29181    28204    28205 1
   29182    28204    28248 1
   29183    28204    28249 1
   29184    28205    28206 1
   29185    28205    28250 1
   29186    28205    28251 1
   29187    28206    28207 1
   29188    28206    28252 1
   29189    28206    28253 1
   29190    28207    28208 1
   29191    28207    28254 1
   29192    28207    28255 1
   29193    28208    28209 1
   29194    28208    28256 1
   29195    28208    28257 1
   29196    28209    28210 1
   29197    28209    28258 1
   29198    28209    28259 1
   29199    28210    28211 1
   29200    28210    28260 1
   29201    28210    28261 1
   29202    28211    28212 1
   29203    28211    28262 1
   29204    28211    28263 1
   29205    28212    28213 1
   29206    28212    28221 1
   29207    28212    28264 1
   29208    28213    28214 1
   29209    28213    28265 1
   29210    28213    28266 1
   29211    28214    28215 1
   29212    28214    28267 1
   29213    28214    28268 1
   29214    28215    28216 1
   29215    28215    28269 1
   29216    28215    28270 1
   29217    28216    28217 1
   29218    28216    28271 1
   29219    28216    28272 1
   29220    28217    28218 1
   29221    28217    28273 1
   29222    28217    28274 1
   29223    28218    28219 1
   29224    28218    28275 1
   29225    28218    28276 1
   29226    28219    28220 1
   29227    28219    28277 1
   29228    28219    28278 1
   29229    28220    28279 1
   29230    28220    28280 1
   29231    28220    28281 1
   29232    28221    28222 1
   29233    28221    28282 1
   29234    28221    28283 1
   29235    28222    28223 1
   29236    28223    28224 1
   29237    28223    28284 1
   29238    28223    28285 1
   29239    28224    28225 1
   29240    28224    28233 1
   29241    28224    28286 1
   29242    28225    28226 1
   29243    28225    28287 1
   29244    28225    28288 1
   29245    28226    28227 1
   29246    28226    28289 1
   29247    28226    28290 1
   29248    28227    28228 1
   29249    28227    28291 1
   29250    28227    28292 1
   29251    28228    28229 1
   29252    28228    28293 1
   29253    28228    28294 1
   29254    28229    28230 1
   29255    28229    28295 1
   29256    28229    28296 1
   29257    28230    28231 1
   29258    28230    28297 1
   29259    28230    28298 1
   29260    28231    28232 1
   29261    28231    28299 1
   29262    28231    28300 1
   29263    28232    28301 1
   29264    28232    28302 1
   29265    28232    28303 1
   29266    28233    28234 1
   29267    28233    28304 1
   29268    28233    28305 1
   29269    28234    28235 1
   29270    28234    28306 1
   29271    28234    28307 1
   29272    28235    28236 1
   29273    28235    28308 1
   29274    28235    28309 1
   29275    28236    28237 1
   29276    28236    28310 1
   29277    28236    28311 1
   29278    28237    28238 1
   29279    28237    28312 1
   29280    28237    28313 1
   29281    28238    28239 1
   29282    28238    28314 1
   29283    28238    28315 1
   29284    28239    28240 1
   29285    28239    28316 1
   29286    28239    28317 1
   29287    28240    28241 1
   29288    28240    28318 1
   29289    28240    28319 1
   29290    28241    28242 1
   29291    28241    28320 1
   29292    28241    28321 1
   29293    28242    28322 1
   29294    28242    28323 1
   29295    28242    28324 1
   29296    28325    28326 1
   29297    28325    28332 1
   29298    28325    28368 1
   29299    28326    28327 1
   29300    28326    28330 1
   29301    28327    28328 1
   29302    28327    28331 1
   29303    28328    28329 1
   29304    28329    28330 1
   29305    28329    28340 1
   29306    28330    28336 1
   29307    28331    28332 1
   29308    28331    28335 1
   29309    28332    28333 1
   29310    28333    28334 1
   29311    28333    28337 1
   29312    28334    28335 1
   29313    28338    28339 1
   29314    28338    28346 1
   29315    28339    28340 1
   29316    28339    28347 1
   29317    28340    28341 1
   29318    28341    28342 1
   29319    28341    28345 1
   29320    28342    28343 1
   29321    28343    28344 1
   29322    28344    28345 1
   29323    28345    28346 1
   29324    28346    28480 1
   29325    28348    28349 1
   29326    28348    28389 1
   29327    28348    28390 1
   29328    28348    28391 1
   29329    28349    28350 1
   29330    28349    28392 1
   29331    28349    28393 1
   29332    28350    28351 1
   29333    28350    28394 1
   29334    28350    28395 1
   29335    28351    28352 1
   29336    28351    28396 1
   29337    28351    28397 1
   29338    28352    28353 1
   29339    28352    28398 1
   29340    28352    28399 1
   29341    28353    28354 1
   29342    28353    28400 1
   29343    28353    28401 1
   29344    28354    28355 1
   29345    28354    28402 1
   29346    28354    28403 1
   29347    28355    28356 1
   29348    28355    28404 1
   29349    28355    28405 1
   29350    28356    28357 1
   29351    28356    28406 1
   29352    28356    28407 1
   29353    28357    28358 1
   29354    28357    28408 1
   29355    28357    28409 1
   29356    28358    28359 1
   29357    28358    28367 1
   29358    28358    28410 1
   29359    28359    28360 1
   29360    28359    28411 1
   29361    28359    28412 1
   29362    28360    28361 1
   29363    28360    28413 1
   29364    28360    28414 1
   29365    28361    28362 1
   29366    28361    28415 1
   29367    28361    28416 1
   29368    28362    28363 1
   29369    28362    28417 1
   29370    28362    28418 1
   29371    28363    28364 1
   29372    28363    28419 1
   29373    28363    28420 1
   29374    28364    28365 1
   29375    28364    28421 1
   29376    28364    28422 1
   29377    28365    28366 1
   29378    28365    28423 1
   29379    28365    28424 1
   29380    28366    28425 1
   29381    28366    28426 1
   29382    28366    28427 1
   29383    28367    28368 1
   29384    28367    28428 1
   29385    28367    28429 1
   29386    28368    28369 1
   29387    28369    28370 1
   29388    28369    28430 1
   29389    28369    28431 1
   29390    28370    28371 1
   29391    28370    28379 1
   29392    28370    28432 1
   29393    28371    28372 1
   29394    28371    28433 1
   29395    28371    28434 1
   29396    28372    28373 1
   29397    28372    28435 1
   29398    28372    28436 1
   29399    28373    28374 1
   29400    28373    28437 1
   29401    28373    28438 1
   29402    28374    28375 1
   29403    28374    28439 1
   29404    28374    28440 1
   29405    28375    28376 1
   29406    28375    28441 1
   29407    28375    28442 1
   29408    28376    28377 1
   29409    28376    28443 1
   29410    28376    28444 1
   29411    28377    28378 1
   29412    28377    28445 1
   29413    28377    28446 1
   29414    28378    28447 1
   29415    28378    28448 1
   29416    28378    28449 1
   29417    28379    28380 1
   29418    28379    28450 1
   29419    28379    28451 1
   29420    28380    28381 1
   29421    28380    28452 1
   29422    28380    28453 1
   29423    28381    28382 1
   29424    28381    28454 1
   29425    28381    28455 1
   29426    28382    28383 1
   29427    28382    28456 1
   29428    28382    28457 1
   29429    28383    28384 1
   29430    28383    28458 1
   29431    28383    28459 1
   29432    28384    28385 1
   29433    28384    28460 1
   29434    28384    28461 1
   29435    28385    28386 1
   29436    28385    28462 1
   29437    28385    28463 1
   29438    28386    28387 1
   29439    28386    28464 1
   29440    28386    28465 1
   29441    28387    28388 1
   29442    28387    28466 1
   29443    28387    28467 1
   29444    28388    28468 1
   29445    28388    28469 1
   29446    28388    28470 1
   29447    28471    28472 1
   29448    28471    28478 1
   29449    28471    28514 1
   29450    28472    28473 1
   29451    28472    28476 1
   29452    28473    28474 1
   29453    28473    28477 1
   29454    28474    28475 1
   29455    28475    28476 1
   29456    28475    28486 1
   29457    28476    28482 1
   29458    28477    28478 1
   29459    28477    28481 1
   29460    28478    28479 1
   29461    28479    28480 1
   29462    28479    28483 1
   29463    28480    28481 1
   29464    28484    28485 1
   29465    28484    28492 1
   29466    28485    28486 1
   29467    28485    28493 1
   29468    28486    28487 1
   29469    28487    28488 1
   29470    28487    28491 1
   29471    28488    28489 1
   29472    28489    28490 1
   29473    28490    28491 1
   29474    28491    28492 1
   29475    28492    28626 1
   29476    28494    28495 1
   29477    28494    28535 1
   29478    28494    28536 1
   29479    28494    28537 1
   29480    28495    28496 1
   29481    28495    28538 1
   29482    28495    28539 1
   29483    28496    28497 1
   29484    28496    28540 1
   29485    28496    28541 1
   29486    28497    28498 1
   29487    28497    28542 1
   29488    28497    28543 1
   29489    28498    28499 1
   29490    28498    28544 1
   29491    28498    28545 1
   29492    28499    28500 1
   29493    28499    28546 1
   29494    28499    28547 1
   29495    28500    28501 1
   29496    28500    28548 1
   29497    28500    28549 1
   29498    28501    28502 1
   29499    28501    28550 1
   29500    28501    28551 1
   29501    28502    28503 1
   29502    28502    28552 1
   29503    28502    28553 1
   29504    28503    28504 1
   29505    28503    28554 1
   29506    28503    28555 1
   29507    28504    28505 1
   29508    28504    28513 1
   29509    28504    28556 1
   29510    28505    28506 1
   29511    28505    28557 1
   29512    28505    28558 1
   29513    28506    28507 1
   29514    28506    28559 1
   29515    28506    28560 1
   29516    28507    28508 1
   29517    28507    28561 1
   29518    28507    28562 1
   29519    28508    28509 1
   29520    28508    28563 1
   29521    28508    28564 1
   29522    28509    28510 1
   29523    28509    28565 1
   29524    28509    28566 1
   29525    28510    28511 1
   29526    28510    28567 1
   29527    28510    28568 1
   29528    28511    28512 1
   29529    28511    28569 1
   29530    28511    28570 1
   29531    28512    28571 1
   29532    28512    28572 1
   29533    28512    28573 1
   29534    28513    28514 1
   29535    28513    28574 1
   29536    28513    28575 1
   29537    28514    28515 1
   29538    28515    28516 1
   29539    28515    28576 1
   29540    28515    28577 1
   29541    28516    28517 1
   29542    28516    28525 1
   29543    28516    28578 1
   29544    28517    28518 1
   29545    28517    28579 1
   29546    28517    28580 1
   29547    28518    28519 1
   29548    28518    28581 1
   29549    28518    28582 1
   29550    28519    28520 1
   29551    28519    28583 1
   29552    28519    28584 1
   29553    28520    28521 1
   29554    28520    28585 1
   29555    28520    28586 1
   29556    28521    28522 1
   29557    28521    28587 1
   29558    28521    28588 1
   29559    28522    28523 1
   29560    28522    28589 1
   29561    28522    28590 1
   29562    28523    28524 1
   29563    28523    28591 1
   29564    28523    28592 1
   29565    28524    28593 1
   29566    28524    28594 1
   29567    28524    28595 1
   29568    28525    28526 1
   29569    28525    28596 1
   29570    28525    28597 1
   29571    28526    28527 1
   29572    28526    28598 1
   29573    28526    28599 1
   29574    28527    28528 1
   29575    28527    28600 1
   29576    28527    28601 1
   29577    28528    28529 1
   29578    28528    28602 1
   29579    28528    28603 1
   29580    28529    28530 1
   29581    28529    28604 1
   29582    28529    28605 1
   29583    28530    28531 1
   29584    28530    28606 1
   29585    28530    28607 1
   29586    28531    28532 1
   29587    28531    28608 1
   29588    28531    28609 1
   29589    28532    28533 1
   29590    28532    28610 1
   29591    28532    28611 1
   29592    28533    28534 1
   29593    28533    28612 1
   29594    28533    28613 1
   29595    28534    28614 1
   29596    28534    28615 1
   29597    28534    28616 1
   29598    28617    28618 1
   29599    28617    28624 1
   29600    28617    28660 1
   29601    28618    28619 1
   29602    28618    28622 1
   29603    28619    28620 1
   29604    28619    28623 1
   29605    28620    28621 1
   29606    28621    28622 1
   29607    28621    28632 1
   29608    28622    28628 1
   29609    28623    28624 1
   29610    28623    28627 1
   29611    28624    28625 1
   29612    28625    28626 1
   29613    28625    28629 1
   29614    28626    28627 1
   29615    28630    28631 1
   29616    28630    28638 1
   29617    28631    28632 1
   29618    28631    28639 1
   29619    28632    28633 1
   29620    28633    28634 1
   29621    28633    28637 1
   29622    28634    28635 1
   29623    28635    28636 1
   29624    28636    28637 1
   29625    28637    28638 1
   29626    28638    28772 1
   29627    28640    28641 1
   29628    28640    28681 1
   29629    28640    28682 1
   29630    28640    28683 1
   29631    28641    28642 1
   29632    28641    28684 1
   29633    28641    28685 1
   29634    28642    28643 1
   29635    28642    28686 1
   29636    28642    28687 1
   29637    28643    28644 1
   29638    28643    28688 1
   29639    28643    28689 1
   29640    28644    28645 1
   29641    28644    28690 1
   29642    28644    28691 1
   29643    28645    28646 1
   29644    28645    28692 1
   29645    28645    28693 1
   29646    28646    28647 1
   29647    28646    28694 1
   29648    28646    28695 1
   29649    28647    28648 1
   29650    28647    28696 1
   29651    28647    28697 1
   29652    28648    28649 1
   29653    28648    28698 1
   29654    28648    28699 1
   29655    28649    28650 1
   29656    28649    28700 1
   29657    28649    28701 1
   29658    28650    28651 1
   29659    28650    28659 1
   29660    28650    28702 1
   29661    28651    28652 1
   29662    28651    28703 1
   29663    28651    28704 1
   29664    28652    28653 1
   29665    28652    28705 1
   29666    28652    28706 1
   29667    28653    28654 1
   29668    28653    28707 1
   29669    28653    28708 1
   29670    28654    28655 1
   29671    28654    28709 1
   29672    28654    28710 1
   29673    28655    28656 1
   29674    28655    28711 1
   29675    28655    28712 1
   29676    28656    28657 1
   29677    28656    28713 1
   29678    28656    28714 1
   29679    28657    28658 1
   29680    28657    28715 1
   29681    28657    28716 1
   29682    28658    28717 1
   29683    28658    28718 1
   29684    28658    28719 1
   29685    28659    28660 1
   29686    28659    28720 1
   29687    28659    28721 1
   29688    28660    28661 1
   29689    28661    28662 1
   29690    28661    28722 1
   29691    28661    28723 1
   29692    28662    28663 1
   29693    28662    28671 1
   29694    28662    28724 1
   29695    28663    28664 1
   29696    28663    28725 1
   29697    28663    28726 1
   29698    28664    28665 1
   29699    28664    28727 1
   29700    28664    28728 1
   29701    28665    28666 1
   29702    28665    28729 1
   29703    28665    28730 1
   29704    28666    28667 1
   29705    28666    28731 1
   29706    28666    28732 1
   29707    28667    28668 1
   29708    28667    28733 1
   29709    28667    28734 1
   29710    28668    28669 1
   29711    28668    28735 1
   29712    28668    28736 1
   29713    28669    28670 1
   29714    28669    28737 1
   29715    28669    28738 1
   29716    28670    28739 1
   29717    28670    28740 1
   29718    28670    28741 1
   29719    28671    28672 1
   29720    28671    28742 1
   29721    28671    28743 1
   29722    28672    28673 1
   29723    28672    28744 1
   29724    28672    28745 1
   29725    28673    28674 1
   29726    28673    28746 1
   29727    28673    28747 1
   29728    28674    28675 1
   29729    28674    28748 1
   29730    28674    28749 1
   29731    28675    28676 1
   29732    28675    28750 1
   29733    28675    28751 1
   29734    28676    28677 1
   29735    28676    28752 1
   29736    28676    28753 1
   29737    28677    28678 1
   29738    28677    28754 1
   29739    28677    28755 1
   29740    28678    28679 1
   29741    28678    28756 1
   29742    28678    28757 1
   29743    28679    28680 1
   29744    28679    28758 1
   29745    28679    28759 1
   29746    28680    28760 1
   29747    28680    28761 1
   29748    28680    28762 1
   29749    28763    28764 1
   29750    28763    28770 1
   29751    28763    28806 1
   29752    28764    28765 1
   29753    28764    28768 1
   29754    28765    28766 1
   29755    28765    28769 1
   29756    28766    28767 1
   29757    28767    28768 1
   29758    28767    28778 1
   29759    28768    28774 1
   29760    28769    28770 1
   29761    28769    28773 1
   29762    28770    28771 1
   29763    28771    28772 1
   29764    28771    28775 1
   29765    28772    28773 1
   29766    28776    28777 1
   29767    28776    28784 1
   29768    28777    28778 1
   29769    28777    28785 1
   29770    28778    28779 1
   29771    28779    28780 1
   29772    28779    28783 1
   29773    28780    28781 1
   29774    28781    28782 1
   29775    28782    28783 1
   29776    28783    28784 1
   29777    28784    28918 1
   29778    28786    28787 1
   29779    28786    28827 1
   29780    28786    28828 1
   29781    28786    28829 1
   29782    28787    28788 1
   29783    28787    28830 1
   29784    28787    28831 1
   29785    28788    28789 1
   29786    28788    28832 1
   29787    28788    28833 1
   29788    28789    28790 1
   29789    28789    28834 1
   29790    28789    28835 1
   29791    28790    28791 1
   29792    28790    28836 1
   29793    28790    28837 1
   29794    28791    28792 1
   29795    28791    28838 1
   29796    28791    28839 1
   29797    28792    28793 1
   29798    28792    28840 1
   29799    28792    28841 1
   29800    28793    28794 1
   29801    28793    28842 1
   29802    28793    28843 1
   29803    28794    28795 1
   29804    28794    28844 1
   29805    28794    28845 1
   29806    28795    28796 1
   29807    28795    28846 1
   29808    28795    28847 1
   29809    28796    28797 1
   29810    28796    28805 1
   29811    28796    28848 1
   29812    28797    28798 1
   29813    28797    28849 1
   29814    28797    28850 1
   29815    28798    28799 1
   29816    28798    28851 1
   29817    28798    28852 1
   29818    28799    28800 1
   29819    28799    28853 1
   29820    28799    28854 1
   29821    28800    28801 1
   29822    28800    28855 1
   29823    28800    28856 1
   29824    28801    28802 1
   29825    28801    28857 1
   29826    28801    28858 1
   29827    28802    28803 1
   29828    28802    28859 1
   29829    28802    28860 1
   29830    28803    28804 1
   29831    28803    28861 1
   29832    28803    28862 1
   29833    28804    28863 1
   29834    28804    28864 1
   29835    28804    28865 1
   29836    28805    28806 1
   29837    28805    28866 1
   29838    28805    28867 1
   29839    28806    28807 1
   29840    28807    28808 1
   29841    28807    28868 1
   29842    28807    28869 1
   29843    28808    28809 1
   29844    28808    28817 1
   29845    28808    28870 1
   29846    28809    28810 1
   29847    28809    28871 1
   29848    28809    28872 1
   29849    28810    28811 1
   29850    28810    28873 1
   29851    28810    28874 1
   29852    28811    28812 1
   29853    28811    28875 1
   29854    28811    28876 1
   29855    28812    28813 1
   29856    28812    28877 1
   29857    28812    28878 1
   29858    28813    28814 1
   29859    28813    28879 1
   29860    28813    28880 1
   29861    28814    28815 1
   29862    28814    28881 1
   29863    28814    28882 1
   29864    28815    28816 1
   29865    28815    28883 1
   29866    28815    28884 1
   29867    28816    28885 1
   29868    28816    28886 1
   29869    28816    28887 1
   29870    28817    28818 1
   29871    28817    28888 1
   29872    28817    28889 1
   29873    28818    28819 1
   29874    28818    28890 1
   29875    28818    28891 1
   29876    28819    28820 1
   29877    28819    28892 1
   29878    28819    28893 1
   29879    28820    28821 1
   29880    28820    28894 1
   29881    28820    28895 1
   29882    28821    28822 1
   29883    28821    28896 1
   29884    28821    28897 1
   29885    28822    28823 1
   29886    28822    28898 1
   29887    28822    28899 1
   29888    28823    28824 1
   29889    28823    28900 1
   29890    28823    28901 1
   29891    28824    28825 1
   29892    28824    28902 1
   29893    28824    28903 1
   29894    28825    28826 1
   29895    28825    28904 1
   29896    28825    28905 1
   29897    28826    28906 1
   29898    28826    28907 1
   29899    28826    28908 1
   29900    28909    28910 1
   29901    28909    28916 1
   29902    28909    28952 1
   29903    28910    28911 1
   29904    28910    28914 1
   29905    28911    28912 1
   29906    28911    28915 1
   29907    28912    28913 1
   29908    28913    28914 1
   29909    28913    28924 1
   29910    28914    28920 1
   29911    28915    28916 1
   29912    28915    28919 1
   29913    28916    28917 1
   29914    28917    28918 1
   29915    28917    28921 1
   29916    28918    28919 1
   29917    28922    28923 1
   29918    28922    28930 1
   29919    28923    28924 1
   29920    28923    28931 1
   29921    28924    28925 1
   29922    28925    28926 1
   29923    28925    28929 1
   29924    28926    28927 1
   29925    28927    28928 1
   29926    28928    28929 1
   29927    28929    28930 1
   29928    28930    29064 1
   29929    28932    28933 1
   29930    28932    28973 1
   29931    28932    28974 1
   29932    28932    28975 1
   29933    28933    28934 1
   29934    28933    28976 1
   29935    28933    28977 1
   29936    28934    28935 1
   29937    28934    28978 1
   29938    28934    28979 1
   29939    28935    28936 1
   29940    28935    28980 1
   29941    28935    28981 1
   29942    28936    28937 1
   29943    28936    28982 1
   29944    28936    28983 1
   29945    28937    28938 1
   29946    28937    28984 1
   29947    28937    28985 1
   29948    28938    28939 1
   29949    28938    28986 1
   29950    28938    28987 1
   29951    28939    28940 1
   29952    28939    28988 1
   29953    28939    28989 1
   29954    28940    28941 1
   29955    28940    28990 1
   29956    28940    28991 1
   29957    28941    28942 1
   29958    28941    28992 1
   29959    28941    28993 1
   29960    28942    28943 1
   29961    28942    28951 1
   29962    28942    28994 1
   29963    28943    28944 1
   29964    28943    28995 1
   29965    28943    28996 1
   29966    28944    28945 1
   29967    28944    28997 1
   29968    28944    28998 1
   29969    28945    28946 1
   29970    28945    28999 1
   29971    28945    29000 1
   29972    28946    28947 1
   29973    28946    29001 1
   29974    28946    29002 1
   29975    28947    28948 1
   29976    28947    29003 1
   29977    28947    29004 1
   29978    28948    28949 1
   29979    28948    29005 1
   29980    28948    29006 1
   29981    28949    28950 1
   29982    28949    29007 1
   29983    28949    29008 1
   29984    28950    29009 1
   29985    28950    29010 1
   29986    28950    29011 1
   29987    28951    28952 1
   29988    28951    29012 1
   29989    28951    29013 1
   29990    28952    28953 1
   29991    28953    28954 1
   29992    28953    29014 1
   29993    28953    29015 1
   29994    28954    28955 1
   29995    28954    28963 1
   29996    28954    29016 1
   29997    28955    28956 1
   29998    28955    29017 1
   29999    28955    29018 1
   30000    28956    28957 1
   30001    28956    29019 1
   30002    28956    29020 1
   30003    28957    28958 1
   30004    28957    29021 1
   30005    28957    29022 1
   30006    28958    28959 1
   30007    28958    29023 1
   30008    28958    29024 1
   30009    28959    28960 1
   30010    28959    29025 1
   30011    28959    29026 1
   30012    28960    28961 1
   30013    28960    29027 1
   30014    28960    29028 1
   30015    28961    28962 1
   30016    28961    29029 1
   30017    28961    29030 1
   30018    28962    29031 1
   30019    28962    29032 1
   30020    28962    29033 1
   30021    28963    28964 1
   30022    28963    29034 1
   30023    28963    29035 1
   30024    28964    28965 1
   30025    28964    29036 1
   30026    28964    29037 1
   30027    28965    28966 1
   30028    28965    29038 1
   30029    28965    29039 1
   30030    28966    28967 1
   30031    28966    29040 1
   30032    28966    29041 1
   30033    28967    28968 1
   30034    28967    29042 1
   30035    28967    29043 1
   30036    28968    28969 1
   30037    28968    29044 1
   30038    28968    29045 1
   30039    28969    28970 1
   30040    28969    29046 1
   30041    28969    29047 1
   30042    28970    28971 1
   30043    28970    29048 1
   30044    28970    29049 1
   30045    28971    28972 1
   30046    28971    29050 1
   30047    28971    29051 1
   30048    28972    29052 1
   30049    28972    29053 1
   30050    28972    29054 1
   30051    29055    29056 1
   30052    29055    29062 1
   30053    29055    29098 1
   30054    29056    29057 1
   30055    29056    29060 1
   30056    29057    29058 1
   30057    29057    29061 1
   30058    29058    29059 1
   30059    29059    29060 1
   30060    29059    29070 1
   30061    29060    29066 1
   30062    29061    29062 1
   30063    29061    29065 1
   30064    29062    29063 1
   30065    29063    29064 1
   30066    29063    29067 1
   30067    29064    29065 1
   30068    29068    29069 1
   30069    29068    29076 1
   30070    29069    29070 1
   30071    29069    29077 1
   30072    29070    29071 1
   30073    29071    29072 1
   30074    29071    29075 1
   30075    29072    29073 1
   30076    29073    29074 1
   30077    29074    29075 1
   30078    29075    29076 1
   30079    29076    29210 1
   30080    29078    29079 1
   30081    29078    29119 1
   30082    29078    29120 1
   30083    29078    29121 1
   30084    29079    29080 1
   30085    29079    29122 1
   30086    29079    29123 1
   30087    29080    29081 1
   30088    29080    29124 1
   30089    29080    29125 1
   30090    29081    29082 1
   30091    29081    29126 1
   30092    29081    29127 1
   30093    29082    29083 1
   30094    29082    29128 1
   30095    29082    29129 1
   30096    29083    29084 1
   30097    29083    29130 1
   30098    29083    29131 1
   30099    29084    29085 1
   30100    29084    29132 1
   30101    29084    29133 1
   30102    29085    29086 1
   30103    29085    29134 1
   30104    29085    29135 1
   30105    29086    29087 1
   30106    29086    29136 1
   30107    29086    29137 1
   30108    29087    29088 1
   30109    29087    29138 1
   30110    29087    29139 1
   30111    29088    29089 1
   30112    29088    29097 1
   30113    29088    29140 1
   30114    29089    29090 1
   30115    29089    29141 1
   30116    29089    29142 1
   30117    29090    29091 1
   30118    29090    29143 1
   30119    29090    29144 1
   30120    29091    29092 1
   30121    29091    29145 1
   30122    29091    29146 1
   30123    29092    29093 1
   30124    29092    29147 1
   30125    29092    29148 1
   30126    29093    29094 1
   30127    29093    29149 1
   30128    29093    29150 1
   30129    29094    29095 1
   30130    29094    29151 1
   30131    29094    29152 1
   30132    29095    29096 1
   30133    29095    29153 1
   30134    29095    29154 1
   30135    29096    29155 1
   30136    29096    29156 1
   30137    29096    29157 1
   30138    29097    29098 1
   30139    29097    29158 1
   30140    29097    29159 1
   30141    29098    29099 1
   30142    29099    29100 1
   30143    29099    29160 1
   30144    29099    29161 1
   30145    29100    29101 1
   30146    29100    29109 1
   30147    29100    29162 1
   30148    29101    29102 1
   30149    29101    29163 1
   30150    29101    29164 1
   30151    29102    29103 1
   30152    29102    29165 1
   30153    29102    29166 1
   30154    29103    29104 1
   30155    29103    29167 1
   30156    29103    29168 1
   30157    29104    29105 1
   30158    29104    29169 1
   30159    29104    29170 1
   30160    29105    29106 1
   30161    29105    29171 1
   30162    29105    29172 1
   30163    29106    29107 1
   30164    29106    29173 1
   30165    29106    29174 1
   30166    29107    29108 1
   30167    29107    29175 1
   30168    29107    29176 1
   30169    29108    29177 1
   30170    29108    29178 1
   30171    29108    29179 1
   30172    29109    29110 1
   30173    29109    29180 1
   30174    29109    29181 1
   30175    29110    29111 1
   30176    29110    29182 1
   30177    29110    29183 1
   30178    29111    29112 1
   30179    29111    29184 1
   30180    29111    29185 1
   30181    29112    29113 1
   30182    29112    29186 1
   30183    29112    29187 1
   30184    29113    29114 1
   30185    29113    29188 1
   30186    29113    29189 1
   30187    29114    29115 1
   30188    29114    29190 1
   30189    29114    29191 1
   30190    29115    29116 1
   30191    29115    29192 1
   30192    29115    29193 1
   30193    29116    29117 1
   30194    29116    29194 1
   30195    29116    29195 1
   30196    29117    29118 1
   30197    29117    29196 1
   30198    29117    29197 1
   30199    29118    29198 1
   30200    29118    29199 1
   30201    29118    29200 1
   30202    29201    29202 1
   30203    29201    29208 1
   30204    29201    29244 1
   30205    29202    29203 1
   30206    29202    29206 1
   30207    29203    29204 1
   30208    29203    29207 1
   30209    29204    29205 1
   30210    29205    29206 1
   30211    29205    29216 1
   30212    29206    29212 1
   30213    29207    29208 1
   30214    29207    29211 1
   30215    29208    29209 1
   30216    29209    29210 1
   30217    29209    29213 1
   30218    29210    29211 1
   30219    29214    29215 1
   30220    29214    29222 1
   30221    29215    29216 1
   30222    29215    29223 1
   30223    29216    29217 1
   30224    29217    29218 1
   30225    29217    29221 1
   30226    29218    29219 1
   30227    29219    29220 1
   30228    29220    29221 1
   30229    29221    29222 1
   30230    29222    29356 1
   30231    29224    29225 1
   30232    29224    29265 1
   30233    29224    29266 1
   30234    29224    29267 1
   30235    29225    29226 1
   30236    29225    29268 1
   30237    29225    29269 1
   30238    29226    29227 1
   30239    29226    29270 1
   30240    29226    29271 1
   30241    29227    29228 1
   30242    29227    29272 1
   30243    29227    29273 1
   30244    29228    29229 1
   30245    29228    29274 1
   30246    29228    29275 1
   30247    29229    29230 1
   30248    29229    29276 1
   30249    29229    29277 1
   30250    29230    29231 1
   30251    29230    29278 1
   30252    29230    29279 1
   30253    29231    29232 1
   30254    29231    29280 1
   30255    29231    29281 1
   30256    29232    29233 1
   30257    29232    29282 1
   30258    29232    29283 1
   30259    29233    29234 1
   30260    29233    29284 1
   30261    29233    29285 1
   30262    29234    29235 1
   30263    29234    29243 1
   30264    29234    29286 1
   30265    29235    29236 1
   30266    29235    29287 1
   30267    29235    29288 1
   30268    29236    29237 1
   30269    29236    29289 1
   30270    29236    29290 1
   30271    29237    29238 1
   30272    29237    29291 1
   30273    29237    29292 1
   30274    29238    29239 1
   30275    29238    29293 1
   30276    29238    29294 1
   30277    29239    29240 1
   30278    29239    29295 1
   30279    29239    29296 1
   30280    29240    29241 1
   30281    29240    29297 1
   30282    29240    29298 1
   30283    29241    29242 1
   30284    29241    29299 1
   30285    29241    29300 1
   30286    29242    29301 1
   30287    29242    29302 1
   30288    29242    29303 1
   30289    29243    29244 1
   30290    29243    29304 1
   30291    29243    29305 1
   30292    29244    29245 1
   30293    29245    29246 1
   30294    29245    29306 1
   30295    29245    29307 1
   30296    29246    29247 1
   30297    29246    29255 1
   30298    29246    29308 1
   30299    29247    29248 1
   30300    29247    29309 1
   30301    29247    29310 1
   30302    29248    29249 1
   30303    29248    29311 1
   30304    29248    29312 1
   30305    29249    29250 1
   30306    29249    29313 1
   30307    29249    29314 1
   30308    29250    29251 1
   30309    29250    29315 1
   30310    29250    29316 1
   30311    29251    29252 1
   30312    29251    29317 1
   30313    29251    29318 1
   30314    29252    29253 1
   30315    29252    29319 1
   30316    29252    29320 1
   30317    29253    29254 1
   30318    29253    29321 1
   30319    29253    29322 1
   30320    29254    29323 1
   30321    29254    29324 1
   30322    29254    29325 1
   30323    29255    29256 1
   30324    29255    29326 1
   30325    29255    29327 1
   30326    29256    29257 1
   30327    29256    29328 1
   30328    29256    29329 1
   30329    29257    29258 1
   30330    29257    29330 1
   30331    29257    29331 1
   30332    29258    29259 1
   30333    29258    29332 1
   30334    29258    29333 1
   30335    29259    29260 1
   30336    29259    29334 1
   30337    29259    29335 1
   30338    29260    29261 1
   30339    29260    29336 1
   30340    29260    29337 1
   30341    29261    29262 1
   30342    29261    29338 1
   30343    29261    29339 1
   30344    29262    29263 1
   30345    29262    29340 1
   30346    29262    29341 1
   30347    29263    29264 1
   30348    29263    29342 1
   30349    29263    29343 1
   30350    29264    29344 1
   30351    29264    29345 1
   30352    29264    29346 1
   30353    29347    29348 1
   30354    29347    29354 1
   30355    29347    29390 1
   30356    29348    29349 1
   30357    29348    29352 1
   30358    29349    29350 1
   30359    29349    29353 1
   30360    29350    29351 1
   30361    29351    29352 1
   30362    29351    29362 1
   30363    29352    29358 1
   30364    29353    29354 1
   30365    29353    29357 1
   30366    29354    29355 1
   30367    29355    29356 1
   30368    29355    29359 1
   30369    29356    29357 1
   30370    29360    29361 1
   30371    29360    29368 1
   30372    29361    29362 1
   30373    29361    29369 1
   30374    29362    29363 1
   30375    29363    29364 1
   30376    29363    29367 1
   30377    29364    29365 1
   30378    29365    29366 1
   30379    29366    29367 1
   30380    29367    29368 1
   30381    29368    29502 1
   30382    29370    29371 1
   30383    29370    29411 1
   30384    29370    29412 1
   30385    29370    29413 1
   30386    29371    29372 1
   30387    29371    29414 1
   30388    29371    29415 1
   30389    29372    29373 1
   30390    29372    29416 1
   30391    29372    29417 1
   30392    29373    29374 1
   30393    29373    29418 1
   30394    29373    29419 1
   30395    29374    29375 1
   30396    29374    29420 1
   30397    29374    29421 1
   30398    29375    29376 1
   30399    29375    29422 1
   30400    29375    29423 1
   30401    29376    29377 1
   30402    29376    29424 1
   30403    29376    29425 1
   30404    29377    29378 1
   30405    29377    29426 1
   30406    29377    29427 1
   30407    29378    29379 1
   30408    29378    29428 1
   30409    29378    29429 1
   30410    29379    29380 1
   30411    29379    29430 1
   30412    29379    29431 1
   30413    29380    29381 1
   30414    29380    29389 1
   30415    29380    29432 1
   30416    29381    29382 1
   30417    29381    29433 1
   30418    29381    29434 1
   30419    29382    29383 1
   30420    29382    29435 1
   30421    29382    29436 1
   30422    29383    29384 1
   30423    29383    29437 1
   30424    29383    29438 1
   30425    29384    29385 1
   30426    29384    29439 1
   30427    29384    29440 1
   30428    29385    29386 1
   30429    29385    29441 1
   30430    29385    29442 1
   30431    29386    29387 1
   30432    29386    29443 1
   30433    29386    29444 1
   30434    29387    29388 1
   30435    29387    29445 1
   30436    29387    29446 1
   30437    29388    29447 1
   30438    29388    29448 1
   30439    29388    29449 1
   30440    29389    29390 1
   30441    29389    29450 1
   30442    29389    29451 1
   30443    29390    29391 1
   30444    29391    29392 1
   30445    29391    29452 1
   30446    29391    29453 1
   30447    29392    29393 1
   30448    29392    29401 1
   30449    29392    29454 1
   30450    29393    29394 1
   30451    29393    29455 1
   30452    29393    29456 1
   30453    29394    29395 1
   30454    29394    29457 1
   30455    29394    29458 1
   30456    29395    29396 1
   30457    29395    29459 1
   30458    29395    29460 1
   30459    29396    29397 1
   30460    29396    29461 1
   30461    29396    29462 1
   30462    29397    29398 1
   30463    29397    29463 1
   30464    29397    29464 1
   30465    29398    29399 1
   30466    29398    29465 1
   30467    29398    29466 1
   30468    29399    29400 1
   30469    29399    29467 1
   30470    29399    29468 1
   30471    29400    29469 1
   30472    29400    29470 1
   30473    29400    29471 1
   30474    29401    29402 1
   30475    29401    29472 1
   30476    29401    29473 1
   30477    29402    29403 1
   30478    29402    29474 1
   30479    29402    29475 1
   30480    29403    29404 1
   30481    29403    29476 1
   30482    29403    29477 1
   30483    29404    29405 1
   30484    29404    29478 1
   30485    29404    29479 1
   30486    29405    29406 1
   30487    29405    29480 1
   30488    29405    29481 1
   30489    29406    29407 1
   30490    29406    29482 1
   30491    29406    29483 1
   30492    29407    29408 1
   30493    29407    29484 1
   30494    29407    29485 1
   30495    29408    29409 1
   30496    29408    29486 1
   30497    29408    29487 1
   30498    29409    29410 1
   30499    29409    29488 1
   30500    29409    29489 1
   30501    29410    29490 1
   30502    29410    29491 1
   30503    29410    29492 1
   30504    29493    29494 1
   30505    29493    29500 1
   30506    29493    29536 1
   30507    29494    29495 1
   30508    29494    29498 1
   30509    29495    29496 1
   30510    29495    29499 1
   30511    29496    29497 1
   30512    29497    29498 1
   30513    29497    29508 1
   30514    29498    29504 1
   30515    29499    29500 1
   30516    29499    29503 1
   30517    29500    29501 1
   30518    29501    29502 1
   30519    29501    29505 1
   30520    29502    29503 1
   30521    29506    29507 1
   30522    29506    29514 1
   30523    29507    29508 1
   30524    29507    29515 1
   30525    29508    29509 1
   30526    29509    29510 1
   30527    29509    29513 1
   30528    29510    29511 1
   30529    29511    29512 1
   30530    29512    29513 1
   30531    29513    29514 1
   30532    29514    29648 1
   30533    29516    29517 1
   30534    29516    29557 1
   30535    29516    29558 1
   30536    29516    29559 1
   30537    29517    29518 1
   30538    29517    29560 1
   30539    29517    29561 1
   30540    29518    29519 1
   30541    29518    29562 1
   30542    29518    29563 1
   30543    29519    29520 1
   30544    29519    29564 1
   30545    29519    29565 1
   30546    29520    29521 1
   30547    29520    29566 1
   30548    29520    29567 1
   30549    29521    29522 1
   30550    29521    29568 1
   30551    29521    29569 1
   30552    29522    29523 1
   30553    29522    29570 1
   30554    29522    29571 1
   30555    29523    29524 1
   30556    29523    29572 1
   30557    29523    29573 1
   30558    29524    29525 1
   30559    29524    29574 1
   30560    29524    29575 1
   30561    29525    29526 1
   30562    29525    29576 1
   30563    29525    29577 1
   30564    29526    29527 1
   30565    29526    29535 1
   30566    29526    29578 1
   30567    29527    29528 1
   30568    29527    29579 1
   30569    29527    29580 1
   30570    29528    29529 1
   30571    29528    29581 1
   30572    29528    29582 1
   30573    29529    29530 1
   30574    29529    29583 1
   30575    29529    29584 1
   30576    29530    29531 1
   30577    29530    29585 1
   30578    29530    29586 1
   30579    29531    29532 1
   30580    29531    29587 1
   30581    29531    29588 1
   30582    29532    29533 1
   30583    29532    29589 1
   30584    29532    29590 1
   30585    29533    29534 1
   30586    29533    29591 1
   30587    29533    29592 1
   30588    29534    29593 1
   30589    29534    29594 1
   30590    29534    29595 1
   30591    29535    29536 1
   30592    29535    29596 1
   30593    29535    29597 1
   30594    29536    29537 1
   30595    29537    29538 1
   30596    29537    29598 1
   30597    29537    29599 1
   30598    29538    29539 1
   30599    29538    29547 1
   30600    29538    29600 1
   30601    29539    29540 1
   30602    29539    29601 1
   30603    29539    29602 1
   30604    29540    29541 1
   30605    29540    29603 1
   30606    29540    29604 1
   30607    29541    29542 1
   30608    29541    29605 1
   30609    29541    29606 1
   30610    29542    29543 1
   30611    29542    29607 1
   30612    29542    29608 1
   30613    29543    29544 1
   30614    29543    29609 1
   30615    29543    29610 1
   30616    29544    29545 1
   30617    29544    29611 1
   30618    29544    29612 1
   30619    29545    29546 1
   30620    29545    29613 1
   30621    29545    29614 1
   30622    29546    29615 1
   30623    29546    29616 1
   30624    29546    29617 1
   30625    29547    29548 1
   30626    29547    29618 1
   30627    29547    29619 1
   30628    29548    29549 1
   30629    29548    29620 1
   30630    29548    29621 1
   30631    29549    29550 1
   30632    29549    29622 1
   30633    29549    29623 1
   30634    29550    29551 1
   30635    29550    29624 1
   30636    29550    29625 1
   30637    29551    29552 1
   30638    29551    29626 1
   30639    29551    29627 1
   30640    29552    29553 1
   30641    29552    29628 1
   30642    29552    29629 1
   30643    29553    29554 1
   30644    29553    29630 1
   30645    29553    29631 1
   30646    29554    29555 1
   30647    29554    29632 1
   30648    29554    29633 1
   30649    29555    29556 1
   30650    29555    29634 1
   30651    29555    29635 1
   30652    29556    29636 1
   30653    29556    29637 1
   30654    29556    29638 1
   30655    29639    29640 1
   30656    29639    29646 1
   30657    29639    29682 1
   30658    29640    29641 1
   30659    29640    29644 1
   30660    29641    29642 1
   30661    29641    29645 1
   30662    29642    29643 1
   30663    29643    29644 1
   30664    29643    29654 1
   30665    29644    29650 1
   30666    29645    29646 1
   30667    29645    29649 1
   30668    29646    29647 1
   30669    29647    29648 1
   30670    29647    29651 1
   30671    29648    29649 1
   30672    29652    29653 1
   30673    29652    29660 1
   30674    29653    29654 1
   30675    29653    29661 1
   30676    29654    29655 1
   30677    29655    29656 1
   30678    29655    29659 1
   30679    29656    29657 1
   30680    29657    29658 1
   30681    29658    29659 1
   30682    29659    29660 1
   30683    29660    29794 1
   30684    29662    29663 1
   30685    29662    29703 1
   30686    29662    29704 1
   30687    29662    29705 1
   30688    29663    29664 1
   30689    29663    29706 1
   30690    29663    29707 1
   30691    29664    29665 1
   30692    29664    29708 1
   30693    29664    29709 1
   30694    29665    29666 1
   30695    29665    29710 1
   30696    29665    29711 1
   30697    29666    29667 1
   30698    29666    29712 1
   30699    29666    29713 1
   30700    29667    29668 1
   30701    29667    29714 1
   30702    29667    29715 1
   30703    29668    29669 1
   30704    29668    29716 1
   30705    29668    29717 1
   30706    29669    29670 1
   30707    29669    29718 1
   30708    29669    29719 1
   30709    29670    29671 1
   30710    29670    29720 1
   30711    29670    29721 1
   30712    29671    29672 1
   30713    29671    29722 1
   30714    29671    29723 1
   30715    29672    29673 1
   30716    29672    29681 1
   30717    29672    29724 1
   30718    29673    29674 1
   30719    29673    29725 1
   30720    29673    29726 1
   30721    29674    29675 1
   30722    29674    29727 1
   30723    29674    29728 1
   30724    29675    29676 1
   30725    29675    29729 1
   30726    29675    29730 1
   30727    29676    29677 1
   30728    29676    29731 1
   30729    29676    29732 1
   30730    29677    29678 1
   30731    29677    29733 1
   30732    29677    29734 1
   30733    29678    29679 1
   30734    29678    29735 1
   30735    29678    29736 1
   30736    29679    29680 1
   30737    29679    29737 1
   30738    29679    29738 1
   30739    29680    29739 1
   30740    29680    29740 1
   30741    29680    29741 1
   30742    29681    29682 1
   30743    29681    29742 1
   30744    29681    29743 1
   30745    29682    29683 1
   30746    29683    29684 1
   30747    29683    29744 1
   30748    29683    29745 1
   30749    29684    29685 1
   30750    29684    29693 1
   30751    29684    29746 1
   30752    29685    29686 1
   30753    29685    29747 1
   30754    29685    29748 1
   30755    29686    29687 1
   30756    29686    29749 1
   30757    29686    29750 1
   30758    29687    29688 1
   30759    29687    29751 1
   30760    29687    29752 1
   30761    29688    29689 1
   30762    29688    29753 1
   30763    29688    29754 1
   30764    29689    29690 1
   30765    29689    29755 1
   30766    29689    29756 1
   30767    29690    29691 1
   30768    29690    29757 1
   30769    29690    29758 1
   30770    29691    29692 1
   30771    29691    29759 1
   30772    29691    29760 1
   30773    29692    29761 1
   30774    29692    29762 1
   30775    29692    29763 1
   30776    29693    29694 1
   30777    29693    29764 1
   30778    29693    29765 1
   30779    29694    29695 1
   30780    29694    29766 1
   30781    29694    29767 1
   30782    29695    29696 1
   30783    29695    29768 1
   30784    29695    29769 1
   30785    29696    29697 1
   30786    29696    29770 1
   30787    29696    29771 1
   30788    29697    29698 1
   30789    29697    29772 1
   30790    29697    29773 1
   30791    29698    29699 1
   30792    29698    29774 1
   30793    29698    29775 1
   30794    29699    29700 1
   30795    29699    29776 1
   30796    29699    29777 1
   30797    29700    29701 1
   30798    29700    29778 1
   30799    29700    29779 1
   30800    29701    29702 1
   30801    29701    29780 1
   30802    29701    29781 1
   30803    29702    29782 1
   30804    29702    29783 1
   30805    29702    29784 1
   30806    29785    29786 1
   30807    29785    29792 1
   30808    29785    29828 1
   30809    29786    29787 1
   30810    29786    29790 1
   30811    29787    29788 1
   30812    29787    29791 1
   30813    29788    29789 1
   30814    29789    29790 1
   30815    29789    29800 1
   30816    29790    29796 1
   30817    29791    29792 1
   30818    29791    29795 1
   30819    29792    29793 1
   30820    29793    29794 1
   30821    29793    29797 1
   30822    29794    29795 1
   30823    29798    29799 1
   30824    29798    29806 1
   30825    29799    29800 1
   30826    29799    29807 1
   30827    29800    29801 1
   30828    29801    29802 1
   30829    29801    29805 1
   30830    29802    29803 1
   30831    29803    29804 1
   30832    29804    29805 1
   30833    29805    29806 1
   30834    29806    29940 1
   30835    29808    29809 1
   30836    29808    29849 1
   30837    29808    29850 1
   30838    29808    29851 1
   30839    29809    29810 1
   30840    29809    29852 1
   30841    29809    29853 1
   30842    29810    29811 1
   30843    29810    29854 1
   30844    29810    29855 1
   30845    29811    29812 1
   30846    29811    29856 1
   30847    29811    29857 1
   30848    29812    29813 1
   30849    29812    29858 1
   30850    29812    29859 1
   30851    29813    29814 1
   30852    29813    29860 1
   30853    29813    29861 1
   30854    29814    29815 1
   30855    29814    29862 1
   30856    29814    29863 1
   30857    29815    29816 1
   30858    29815    29864 1
   30859    29815    29865 1
   30860    29816    29817 1
   30861    29816    29866 1
   30862    29816    29867 1
   30863    29817    29818 1
   30864    29817    29868 1
   30865    29817    29869 1
   30866    29818    29819 1
   30867    29818    29827 1
   30868    29818    29870 1
   30869    29819    29820 1
   30870    29819    29871 1
   30871    29819    29872 1
   30872    29820    29821 1
   30873    29820    29873 1
   30874    29820    29874 1
   30875    29821    29822 1
   30876    29821    29875 1
   30877    29821    29876 1
   30878    29822    29823 1
   30879    29822    29877 1
   30880    29822    29878 1
   30881    29823    29824 1
   30882    29823    29879 1
   30883    29823    29880 1
   30884    29824    29825 1
   30885    29824    29881 1
   30886    29824    29882 1
   30887    29825    29826 1
   30888    29825    29883 1
   30889    29825    29884 1
   30890    29826    29885 1
   30891    29826    29886 1
   30892    29826    29887 1
   30893    29827    29828 1
   30894    29827    29888 1
   30895    29827    29889 1
   30896    29828    29829 1
   30897    29829    29830 1
   30898    29829    29890 1
   30899    29829    29891 1
   30900    29830    29831 1
   30901    29830    29839 1
   30902    29830    29892 1
   30903    29831    29832 1
   30904    29831    29893 1
   30905    29831    29894 1
   30906    29832    29833 1
   30907    29832    29895 1
   30908    29832    29896 1
   30909    29833    29834 1
   30910    29833    29897 1
   30911    29833    29898 1
   30912    29834    29835 1
   30913    29834    29899 1
   30914    29834    29900 1
   30915    29835    29836 1
   30916    29835    29901 1
   30917    29835    29902 1
   30918    29836    29837 1
   30919    29836    29903 1
   30920    29836    29904 1
   30921    29837    29838 1
   30922    29837    29905 1
   30923    29837    29906 1
   30924    29838    29907 1
   30925    29838    29908 1
   30926    29838    29909 1
   30927    29839    29840 1
   30928    29839    29910 1
   30929    29839    29911 1
   30930    29840    29841 1
   30931    29840    29912 1
   30932    29840    29913 1
   30933    29841    29842 1
   30934    29841    29914 1
   30935    29841    29915 1
   30936    29842    29843 1
   30937    29842    29916 1
   30938    29842    29917 1
   30939    29843    29844 1
   30940    29843    29918 1
   30941    29843    29919 1
   30942    29844    29845 1
   30943    29844    29920 1
   30944    29844    29921 1
   30945    29845    29846 1
   30946    29845    29922 1
   30947    29845    29923 1
   30948    29846    29847 1
   30949    29846    29924 1
   30950    29846    29925 1
   30951    29847    29848 1
   30952    29847    29926 1
   30953    29847    29927 1
   30954    29848    29928 1
   30955    29848    29929 1
   30956    29848    29930 1
   30957    29931    29932 1
   30958    29931    29938 1
   30959    29931    29974 1
   30960    29932    29933 1
   30961    29932    29936 1
   30962    29933    29934 1
   30963    29933    29937 1
   30964    29934    29935 1
   30965    29935    29936 1
   30966    29935    29946 1
   30967    29936    29942 1
   30968    29937    29938 1
   30969    29937    29941 1
   30970    29938    29939 1
   30971    29939    29940 1
   30972    29939    29943 1
   30973    29940    29941 1
   30974    29944    29945 1
   30975    29944    29952 1
   30976    29945    29946 1
   30977    29945    29953 1
   30978    29946    29947 1
   30979    29947    29948 1
   30980    29947    29951 1
   30981    29948    29949 1
   30982    29949    29950 1
   30983    29950    29951 1
   30984    29951    29952 1
   30985    29952    30086 1
   30986    29954    29955 1
   30987    29954    29995 1
   30988    29954    29996 1
   30989    29954    29997 1
   30990    29955    29956 1
   30991    29955    29998 1
   30992    29955    29999 1
   30993    29956    29957 1
   30994    29956    30000 1
   30995    29956    30001 1
   30996    29957    29958 1
   30997    29957    30002 1
   30998    29957    30003 1
   30999    29958    29959 1
   31000    29958    30004 1
   31001    29958    30005 1
   31002    29959    29960 1
   31003    29959    30006 1
   31004    29959    30007 1
   31005    29960    29961 1
   31006    29960    30008 1
   31007    29960    30009 1
   31008    29961    29962 1
   31009    29961    30010 1
   31010    29961    30011 1
   31011    29962    29963 1
   31012    29962    30012 1
   31013    29962    30013 1
   31014    29963    29964 1
   31015    29963    30014 1
   31016    29963    30015 1
   31017    29964    29965 1
   31018    29964    29973 1
   31019    29964    30016 1
   31020    29965    29966 1
   31021    29965    30017 1
   31022    29965    30018 1
   31023    29966    29967 1
   31024    29966    30019 1
   31025    29966    30020 1
   31026    29967    29968 1
   31027    29967    30021 1
   31028    29967    30022 1
   31029    29968    29969 1
   31030    29968    30023 1
   31031    29968    30024 1
   31032    29969    29970 1
   31033    29969    30025 1
   31034    29969    30026 1
   31035    29970    29971 1
   31036    29970    30027 1
   31037    29970    30028 1
   31038    29971    29972 1
   31039    29971    30029 1
   31040    29971    30030 1
   31041    29972    30031 1
   31042    29972    30032 1
   31043    29972    30033 1
   31044    29973    29974 1
   31045    29973    30034 1
   31046    29973    30035 1
   31047    29974    29975 1
   31048    29975    29976 1
   31049    29975    30036 1
   31050    29975    30037 1
   31051    29976    29977 1
   31052    29976    29985 1
   31053    29976    30038 1
   31054    29977    29978 1
   31055    29977    30039 1
   31056    29977    30040 1
   31057    29978    29979 1
   31058    29978    30041 1
   31059    29978    30042 1
   31060    29979    29980 1
   31061    29979    30043 1
   31062    29979    30044 1
   31063    29980    29981 1
   31064    29980    30045 1
   31065    29980    30046 1
   31066    29981    29982 1
   31067    29981    30047 1
   31068    29981    30048 1
   31069    29982    29983 1
   31070    29982    30049 1
   31071    29982    30050 1
   31072    29983    29984 1
   31073    29983    30051 1
   31074    29983    30052 1
   31075    29984    30053 1
   31076    29984    30054 1
   31077    29984    30055 1
   31078    29985    29986 1
   31079    29985    30056 1
   31080    29985    30057 1
   31081    29986    29987 1
   31082    29986    30058 1
   31083    29986    30059 1
   31084    29987    29988 1
   31085    29987    30060 1
   31086    29987    30061 1
   31087    29988    29989 1
   31088    29988    30062 1
   31089    29988    30063 1
   31090    29989    29990 1
   31091    29989    30064 1
   31092    29989    30065 1
   31093    29990    29991 1
   31094    29990    30066 1
   31095    29990    30067 1
   31096    29991    29992 1
   31097    29991    30068 1
   31098    29991    30069 1
   31099    29992    29993 1
   31100    29992    30070 1
   31101    29992    30071 1
   31102    29993    29994 1
   31103    29993    30072 1
   31104    29993    30073 1
   31105    29994    30074 1
   31106    29994    30075 1
   31107    29994    30076 1
   31108    30077    30078 1
   31109    30077    30084 1
   31110    30077    30120 1
   31111    30078    30079 1
   31112    30078    30082 1
   31113    30079    30080 1
   31114    30079    30083 1
   31115    30080    30081 1
   31116    30081    30082 1
   31117    30081    30092 1
   31118    30082    30088 1
   31119    30083    30084 1
   31120    30083    30087 1
   31121    30084    30085 1
   31122    30085    30086 1
   31123    30085    30089 1
   31124    30086    30087 1
   31125    30090    30091 1
   31126    30090    30098 1
   31127    30091    30092 1
   31128    30091    30099 1
   31129    30092    30093 1
   31130    30093    30094 1
   31131    30093    30097 1
   31132    30094    30095 1
   31133    30095    30096 1
   31134    30096    30097 1
   31135    30097    30098 1
   31136    30098    30232 1
   31137    30100    30101 1
   31138    30100    30141 1
   31139    30100    30142 1
   31140    30100    30143 1
   31141    30101    30102 1
   31142    30101    30144 1
   31143    30101    30145 1
   31144    30102    30103 1
   31145    30102    30146 1
   31146    30102    30147 1
   31147    30103    30104 1
   31148    30103    30148 1
   31149    30103    30149 1
   31150    30104    30105 1
   31151    30104    30150 1
   31152    30104    30151 1
   31153    30105    30106 1
   31154    30105    30152 1
   31155    30105    30153 1
   31156    30106    30107 1
   31157    30106    30154 1
   31158    30106    30155 1
   31159    30107    30108 1
   31160    30107    30156 1
   31161    30107    30157 1
   31162    30108    30109 1
   31163    30108    30158 1
   31164    30108    30159 1
   31165    30109    30110 1
   31166    30109    30160 1
   31167    30109    30161 1
   31168    30110    30111 1
   31169    30110    30119 1
   31170    30110    30162 1
   31171    30111    30112 1
   31172    30111    30163 1
   31173    30111    30164 1
   31174    30112    30113 1
   31175    30112    30165 1
   31176    30112    30166 1
   31177    30113    30114 1
   31178    30113    30167 1
   31179    30113    30168 1
   31180    30114    30115 1
   31181    30114    30169 1
   31182    30114    30170 1
   31183    30115    30116 1
   31184    30115    30171 1
   31185    30115    30172 1
   31186    30116    30117 1
   31187    30116    30173 1
   31188    30116    30174 1
   31189    30117    30118 1
   31190    30117    30175 1
   31191    30117    30176 1
   31192    30118    30177 1
   31193    30118    30178 1
   31194    30118    30179 1
   31195    30119    30120 1
   31196    30119    30180 1
   31197    30119    30181 1
   31198    30120    30121 1
   31199    30121    30122 1
   31200    30121    30182 1
   31201    30121    30183 1
   31202    30122    30123 1
   31203    30122    30131 1
   31204    30122    30184 1
   31205    30123    30124 1
   31206    30123    30185 1
   31207    30123    30186 1
   31208    30124    30125 1
   31209    30124    30187 1
   31210    30124    30188 1
   31211    30125    30126 1
   31212    30125    30189 1
   31213    30125    30190 1
   31214    30126    30127 1
   31215    30126    30191 1
   31216    30126    30192 1
   31217    30127    30128 1
   31218    30127    30193 1
   31219    30127    30194 1
   31220    30128    30129 1
   31221    30128    30195 1
   31222    30128    30196 1
   31223    30129    30130 1
   31224    30129    30197 1
   31225    30129    30198 1
   31226    30130    30199 1
   31227    30130    30200 1
   31228    30130    30201 1
   31229    30131    30132 1
   31230    30131    30202 1
   31231    30131    30203 1
   31232    30132    30133 1
   31233    30132    30204 1
   31234    30132    30205 1
   31235    30133    30134 1
   31236    30133    30206 1
   31237    30133    30207 1
   31238    30134    30135 1
   31239    30134    30208 1
   31240    30134    30209 1
   31241    30135    30136 1
   31242    30135    30210 1
   31243    30135    30211 1
   31244    30136    30137 1
   31245    30136    30212 1
   31246    30136    30213 1
   31247    30137    30138 1
   31248    30137    30214 1
   31249    30137    30215 1
   31250    30138    30139 1
   31251    30138    30216 1
   31252    30138    30217 1
   31253    30139    30140 1
   31254    30139    30218 1
   31255    30139    30219 1
   31256    30140    30220 1
   31257    30140    30221 1
   31258    30140    30222 1
   31259    30223    30224 1
   31260    30223    30230 1
   31261    30223    30266 1
   31262    30224    30225 1
   31263    30224    30228 1
   31264    30225    30226 1
   31265    30225    30229 1
   31266    30226    30227 1
   31267    30227    30228 1
   31268    30227    30238 1
   31269    30228    30234 1
   31270    30229    30230 1
   31271    30229    30233 1
   31272    30230    30231 1
   31273    30231    30232 1
   31274    30231    30235 1
   31275    30232    30233 1
   31276    30236    30237 1
   31277    30236    30244 1
   31278    30237    30238 1
   31279    30237    30245 1
   31280    30238    30239 1
   31281    30239    30240 1
   31282    30239    30243 1
   31283    30240    30241 1
   31284    30241    30242 1
   31285    30242    30243 1
   31286    30243    30244 1
   31287    30244    30378 1
   31288    30246    30247 1
   31289    30246    30287 1
   31290    30246    30288 1
   31291    30246    30289 1
   31292    30247    30248 1
   31293    30247    30290 1
   31294    30247    30291 1
   31295    30248    30249 1
   31296    30248    30292 1
   31297    30248    30293 1
   31298    30249    30250 1
   31299    30249    30294 1
   31300    30249    30295 1
   31301    30250    30251 1
   31302    30250    30296 1
   31303    30250    30297 1
   31304    30251    30252 1
   31305    30251    30298 1
   31306    30251    30299 1
   31307    30252    30253 1
   31308    30252    30300 1
   31309    30252    30301 1
   31310    30253    30254 1
   31311    30253    30302 1
   31312    30253    30303 1
   31313    30254    30255 1
   31314    30254    30304 1
   31315    30254    30305 1
   31316    30255    30256 1
   31317    30255    30306 1
   31318    30255    30307 1
   31319    30256    30257 1
   31320    30256    30265 1
   31321    30256    30308 1
   31322    30257    30258 1
   31323    30257    30309 1
   31324    30257    30310 1
   31325    30258    30259 1
   31326    30258    30311 1
   31327    30258    30312 1
   31328    30259    30260 1
   31329    30259    30313 1
   31330    30259    30314 1
   31331    30260    30261 1
   31332    30260    30315 1
   31333    30260    30316 1
   31334    30261    30262 1
   31335    30261    30317 1
   31336    30261    30318 1
   31337    30262    30263 1
   31338    30262    30319 1
   31339    30262    30320 1
   31340    30263    30264 1
   31341    30263    30321 1
   31342    30263    30322 1
   31343    30264    30323 1
   31344    30264    30324 1
   31345    30264    30325 1
   31346    30265    30266 1
   31347    30265    30326 1
   31348    30265    30327 1
   31349    30266    30267 1
   31350    30267    30268 1
   31351    30267    30328 1
   31352    30267    30329 1
   31353    30268    30269 1
   31354    30268    30277 1
   31355    30268    30330 1
   31356    30269    30270 1
   31357    30269    30331 1
   31358    30269    30332 1
   31359    30270    30271 1
   31360    30270    30333 1
   31361    30270    30334 1
   31362    30271    30272 1
   31363    30271    30335 1
   31364    30271    30336 1
   31365    30272    30273 1
   31366    30272    30337 1
   31367    30272    30338 1
   31368    30273    30274 1
   31369    30273    30339 1
   31370    30273    30340 1
   31371    30274    30275 1
   31372    30274    30341 1
   31373    30274    30342 1
   31374    30275    30276 1
   31375    30275    30343 1
   31376    30275    30344 1
   31377    30276    30345 1
   31378    30276    30346 1
   31379    30276    30347 1
   31380    30277    30278 1
   31381    30277    30348 1
   31382    30277    30349 1
   31383    30278    30279 1
   31384    30278    30350 1
   31385    30278    30351 1
   31386    30279    30280 1
   31387    30279    30352 1
   31388    30279    30353 1
   31389    30280    30281 1
   31390    30280    30354 1
   31391    30280    30355 1
   31392    30281    30282 1
   31393    30281    30356 1
   31394    30281    30357 1
   31395    30282    30283 1
   31396    30282    30358 1
   31397    30282    30359 1
   31398    30283    30284 1
   31399    30283    30360 1
   31400    30283    30361 1
   31401    30284    30285 1
   31402    30284    30362 1
   31403    30284    30363 1
   31404    30285    30286 1
   31405    30285    30364 1
   31406    30285    30365 1
   31407    30286    30366 1
   31408    30286    30367 1
   31409    30286    30368 1
   31410    30369    30370 1
   31411    30369    30376 1
   31412    30369    30412 1
   31413    30370    30371 1
   31414    30370    30374 1
   31415    30371    30372 1
   31416    30371    30375 1
   31417    30372    30373 1
   31418    30373    30374 1
   31419    30373    30384 1
   31420    30374    30380 1
   31421    30375    30376 1
   31422    30375    30379 1
   31423    30376    30377 1
   31424    30377    30378 1
   31425    30377    30381 1
   31426    30378    30379 1
   31427    30382    30383 1
   31428    30382    30390 1
   31429    30383    30384 1
   31430    30383    30391 1
   31431    30384    30385 1
   31432    30385    30386 1
   31433    30385    30389 1
   31434    30386    30387 1
   31435    30387    30388 1
   31436    30388    30389 1
   31437    30389    30390 1
   31438    30390    30524 1
   31439    30392    30393 1
   31440    30392    30433 1
   31441    30392    30434 1
   31442    30392    30435 1
   31443    30393    30394 1
   31444    30393    30436 1
   31445    30393    30437 1
   31446    30394    30395 1
   31447    30394    30438 1
   31448    30394    30439 1
   31449    30395    30396 1
   31450    30395    30440 1
   31451    30395    30441 1
   31452    30396    30397 1
   31453    30396    30442 1
   31454    30396    30443 1
   31455    30397    30398 1
   31456    30397    30444 1
   31457    30397    30445 1
   31458    30398    30399 1
   31459    30398    30446 1
   31460    30398    30447 1
   31461    30399    30400 1
   31462    30399    30448 1
   31463    30399    30449 1
   31464    30400    30401 1
   31465    30400    30450 1
   31466    30400    30451 1
   31467    30401    30402 1
   31468    30401    30452 1
   31469    30401    30453 1
   31470    30402    30403 1
   31471    30402    30411 1
   31472    30402    30454 1
   31473    30403    30404 1
   31474    30403    30455 1
   31475    30403    30456 1
   31476    30404    30405 1
   31477    30404    30457 1
   31478    30404    30458 1
   31479    30405    30406 1
   31480    30405    30459 1
   31481    30405    30460 1
   31482    30406    30407 1
   31483    30406    30461 1
   31484    30406    30462 1
   31485    30407    30408 1
   31486    30407    30463 1
   31487    30407    30464 1
   31488    30408    30409 1
   31489    30408    30465 1
   31490    30408    30466 1
   31491    30409    30410 1
   31492    30409    30467 1
   31493    30409    30468 1
   31494    30410    30469 1
   31495    30410    30470 1
   31496    30410    30471 1
   31497    30411    30412 1
   31498    30411    30472 1
   31499    30411    30473 1
   31500    30412    30413 1
   31501    30413    30414 1
   31502    30413    30474 1
   31503    30413    30475 1
   31504    30414    30415 1
   31505    30414    30423 1
   31506    30414    30476 1
   31507    30415    30416 1
   31508    30415    30477 1
   31509    30415    30478 1
   31510    30416    30417 1
   31511    30416    30479 1
   31512    30416    30480 1
   31513    30417    30418 1
   31514    30417    30481 1
   31515    30417    30482 1
   31516    30418    30419 1
   31517    30418    30483 1
   31518    30418    30484 1
   31519    30419    30420 1
   31520    30419    30485 1
   31521    30419    30486 1
   31522    30420    30421 1
   31523    30420    30487 1
   31524    30420    30488 1
   31525    30421    30422 1
   31526    30421    30489 1
   31527    30421    30490 1
   31528    30422    30491 1
   31529    30422    30492 1
   31530    30422    30493 1
   31531    30423    30424 1
   31532    30423    30494 1
   31533    30423    30495 1
   31534    30424    30425 1
   31535    30424    30496 1
   31536    30424    30497 1
   31537    30425    30426 1
   31538    30425    30498 1
   31539    30425    30499 1
   31540    30426    30427 1
   31541    30426    30500 1
   31542    30426    30501 1
   31543    30427    30428 1
   31544    30427    30502 1
   31545    30427    30503 1
   31546    30428    30429 1
   31547    30428    30504 1
   31548    30428    30505 1
   31549    30429    30430 1
   31550    30429    30506 1
   31551    30429    30507 1
   31552    30430    30431 1
   31553    30430    30508 1
   31554    30430    30509 1
   31555    30431    30432 1
   31556    30431    30510 1
   31557    30431    30511 1
   31558    30432    30512 1
   31559    30432    30513 1
   31560    30432    30514 1
   31561    30515    30516 1
   31562    30515    30522 1
   31563    30515    30558 1
   31564    30516    30517 1
   31565    30516    30520 1
   31566    30517    30518 1
   31567    30517    30521 1
   31568    30518    30519 1
   31569    30519    30520 1
   31570    30519    30530 1
   31571    30520    30526 1
   31572    30521    30522 1
   31573    30521    30525 1
   31574    30522    30523 1
   31575    30523    30524 1
   31576    30523    30527 1
   31577    30524    30525 1
   31578    30528    30529 1
   31579    30528    30536 1
   31580    30529    30530 1
   31581    30529    30537 1
   31582    30530    30531 1
   31583    30531    30532 1
   31584    30531    30535 1
   31585    30532    30533 1
   31586    30533    30534 1
   31587    30534    30535 1
   31588    30535    30536 1
   31589    30536    30670 1
   31590    30538    30539 1
   31591    30538    30579 1
   31592    30538    30580 1
   31593    30538    30581 1
   31594    30539    30540 1
   31595    30539    30582 1
   31596    30539    30583 1
   31597    30540    30541 1
   31598    30540    30584 1
   31599    30540    30585 1
   31600    30541    30542 1
   31601    30541    30586 1
   31602    30541    30587 1
   31603    30542    30543 1
   31604    30542    30588 1
   31605    30542    30589 1
   31606    30543    30544 1
   31607    30543    30590 1
   31608    30543    30591 1
   31609    30544    30545 1
   31610    30544    30592 1
   31611    30544    30593 1
   31612    30545    30546 1
   31613    30545    30594 1
   31614    30545    30595 1
   31615    30546    30547 1
   31616    30546    30596 1
   31617    30546    30597 1
   31618    30547    30548 1
   31619    30547    30598 1
   31620    30547    30599 1
   31621    30548    30549 1
   31622    30548    30557 1
   31623    30548    30600 1
   31624    30549    30550 1
   31625    30549    30601 1
   31626    30549    30602 1
   31627    30550    30551 1
   31628    30550    30603 1
   31629    30550    30604 1
   31630    30551    30552 1
   31631    30551    30605 1
   31632    30551    30606 1
   31633    30552    30553 1
   31634    30552    30607 1
   31635    30552    30608 1
   31636    30553    30554 1
   31637    30553    30609 1
   31638    30553    30610 1
   31639    30554    30555 1
   31640    30554    30611 1
   31641    30554    30612 1
   31642    30555    30556 1
   31643    30555    30613 1
   31644    30555    30614 1
   31645    30556    30615 1
   31646    30556    30616 1
   31647    30556    30617 1
   31648    30557    30558 1
   31649    30557    30618 1
   31650    30557    30619 1
   31651    30558    30559 1
   31652    30559    30560 1
   31653    30559    30620 1
   31654    30559    30621 1
   31655    30560    30561 1
   31656    30560    30569 1
   31657    30560    30622 1
   31658    30561    30562 1
   31659    30561    30623 1
   31660    30561    30624 1
   31661    30562    30563 1
   31662    30562    30625 1
   31663    30562    30626 1
   31664    30563    30564 1
   31665    30563    30627 1
   31666    30563    30628 1
   31667    30564    30565 1
   31668    30564    30629 1
   31669    30564    30630 1
   31670    30565    30566 1
   31671    30565    30631 1
   31672    30565    30632 1
   31673    30566    30567 1
   31674    30566    30633 1
   31675    30566    30634 1
   31676    30567    30568 1
   31677    30567    30635 1
   31678    30567    30636 1
   31679    30568    30637 1
   31680    30568    30638 1
   31681    30568    30639 1
   31682    30569    30570 1
   31683    30569    30640 1
   31684    30569    30641 1
   31685    30570    30571 1
   31686    30570    30642 1
   31687    30570    30643 1
   31688    30571    30572 1
   31689    30571    30644 1
   31690    30571    30645 1
   31691    30572    30573 1
   31692    30572    30646 1
   31693    30572    30647 1
   31694    30573    30574 1
   31695    30573    30648 1
   31696    30573    30649 1
   31697    30574    30575 1
   31698    30574    30650 1
   31699    30574    30651 1
   31700    30575    30576 1
   31701    30575    30652 1
   31702    30575    30653 1
   31703    30576    30577 1
   31704    30576    30654 1
   31705    30576    30655 1
   31706    30577    30578 1
   31707    30577    30656 1
   31708    30577    30657 1
   31709    30578    30658 1
   31710    30578    30659 1
   31711    30578    30660 1
   31712    30661    30662 1
   31713    30661    30668 1
   31714    30661    30704 1
   31715    30662    30663 1
   31716    30662    30666 1
   31717    30663    30664 1
   31718    30663    30667 1
   31719    30664    30665 1
   31720    30665    30666 1
   31721    30665    30676 1
   31722    30666    30672 1
   31723    30667    30668 1
   31724    30667    30671 1
   31725    30668    30669 1
   31726    30669    30670 1
   31727    30669    30673 1
   31728    30670    30671 1
   31729    30674    30675 1
   31730    30674    30682 1
   31731    30675    30676 1
   31732    30675    30683 1
   31733    30676    30677 1
   31734    30677    30678 1
   31735    30677    30681 1
   31736    30678    30679 1
   31737    30679    30680 1
   31738    30680    30681 1
   31739    30681    30682 1
   31740    30682    30816 1
   31741    30684    30685 1
   31742    30684    30725 1
   31743    30684    30726 1
   31744    30684    30727 1
   31745    30685    30686 1
   31746    30685    30728 1
   31747    30685    30729 1
   31748    30686    30687 1
   31749    30686    30730 1
   31750    30686    30731 1
   31751    30687    30688 1
   31752    30687    30732 1
   31753    30687    30733 1
   31754    30688    30689 1
   31755    30688    30734 1
   31756    30688    30735 1
   31757    30689    30690 1
   31758    30689    30736 1
   31759    30689    30737 1
   31760    30690    30691 1
   31761    30690    30738 1
   31762    30690    30739 1
   31763    30691    30692 1
   31764    30691    30740 1
   31765    30691    30741 1
   31766    30692    30693 1
   31767    30692    30742 1
   31768    30692    30743 1
   31769    30693    30694 1
   31770    30693    30744 1
   31771    30693    30745 1
   31772    30694    30695 1
   31773    30694    30703 1
   31774    30694    30746 1
   31775    30695    30696 1
   31776    30695    30747 1
   31777    30695    30748 1
   31778    30696    30697 1
   31779    30696    30749 1
   31780    30696    30750 1
   31781    30697    30698 1
   31782    30697    30751 1
   31783    30697    30752 1
   31784    30698    30699 1
   31785    30698    30753 1
   31786    30698    30754 1
   31787    30699    30700 1
   31788    30699    30755 1
   31789    30699    30756 1
   31790    30700    30701 1
   31791    30700    30757 1
   31792    30700    30758 1
   31793    30701    30702 1
   31794    30701    30759 1
   31795    30701    30760 1
   31796    30702    30761 1
   31797    30702    30762 1
   31798    30702    30763 1
   31799    30703    30704 1
   31800    30703    30764 1
   31801    30703    30765 1
   31802    30704    30705 1
   31803    30705    30706 1
   31804    30705    30766 1
   31805    30705    30767 1
   31806    30706    30707 1
   31807    30706    30715 1
   31808    30706    30768 1
   31809    30707    30708 1
   31810    30707    30769 1
   31811    30707    30770 1
   31812    30708    30709 1
   31813    30708    30771 1
   31814    30708    30772 1
   31815    30709    30710 1
   31816    30709    30773 1
   31817    30709    30774 1
   31818    30710    30711 1
   31819    30710    30775 1
   31820    30710    30776 1
   31821    30711    30712 1
   31822    30711    30777 1
   31823    30711    30778 1
   31824    30712    30713 1
   31825    30712    30779 1
   31826    30712    30780 1
   31827    30713    30714 1
   31828    30713    30781 1
   31829    30713    30782 1
   31830    30714    30783 1
   31831    30714    30784 1
   31832    30714    30785 1
   31833    30715    30716 1
   31834    30715    30786 1
   31835    30715    30787 1
   31836    30716    30717 1
   31837    30716    30788 1
   31838    30716    30789 1
   31839    30717    30718 1
   31840    30717    30790 1
   31841    30717    30791 1
   31842    30718    30719 1
   31843    30718    30792 1
   31844    30718    30793 1
   31845    30719    30720 1
   31846    30719    30794 1
   31847    30719    30795 1
   31848    30720    30721 1
   31849    30720    30796 1
   31850    30720    30797 1
   31851    30721    30722 1
   31852    30721    30798 1
   31853    30721    30799 1
   31854    30722    30723 1
   31855    30722    30800 1
   31856    30722    30801 1
   31857    30723    30724 1
   31858    30723    30802 1
   31859    30723    30803 1
   31860    30724    30804 1
   31861    30724    30805 1
   31862    30724    30806 1
   31863    30807    30808 1
   31864    30807    30814 1
   31865    30807    30850 1
   31866    30808    30809 1
   31867    30808    30812 1
   31868    30809    30810 1
   31869    30809    30813 1
   31870    30810    30811 1
   31871    30811    30812 1
   31872    30811    30822 1
   31873    30812    30818 1
   31874    30813    30814 1
   31875    30813    30817 1
   31876    30814    30815 1
   31877    30815    30816 1
   31878    30815    30819 1
   31879    30816    30817 1
   31880    30820    30821 1
   31881    30820    30828 1
   31882    30821    30822 1
   31883    30821    30829 1
   31884    30822    30823 1
   31885    30823    30824 1
   31886    30823    30827 1
   31887    30824    30825 1
   31888    30825    30826 1
   31889    30826    30827 1
   31890    30827    30828 1
   31891    30828    30962 1
   31892    30830    30831 1
   31893    30830    30871 1
   31894    30830    30872 1
   31895    30830    30873 1
   31896    30831    30832 1
   31897    30831    30874 1
   31898    30831    30875 1
   31899    30832    30833 1
   31900    30832    30876 1
   31901    30832    30877 1
   31902    30833    30834 1
   31903    30833    30878 1
   31904    30833    30879 1
   31905    30834    30835 1
   31906    30834    30880 1
   31907    30834    30881 1
   31908    30835    30836 1
   31909    30835    30882 1
   31910    30835    30883 1
   31911    30836    30837 1
   31912    30836    30884 1
   31913    30836    30885 1
   31914    30837    30838 1
   31915    30837    30886 1
   31916    30837    30887 1
   31917    30838    30839 1
   31918    30838    30888 1
   31919    30838    30889 1
   31920    30839    30840 1
   31921    30839    30890 1
   31922    30839    30891 1
   31923    30840    30841 1
   31924    30840    30849 1
   31925    30840    30892 1
   31926    30841    30842 1
   31927    30841    30893 1
   31928    30841    30894 1
   31929    30842    30843 1
   31930    30842    30895 1
   31931    30842    30896 1
   31932    30843    30844 1
   31933    30843    30897 1
   31934    30843    30898 1
   31935    30844    30845 1
   31936    30844    30899 1
   31937    30844    30900 1
   31938    30845    30846 1
   31939    30845    30901 1
   31940    30845    30902 1
   31941    30846    30847 1
   31942    30846    30903 1
   31943    30846    30904 1
   31944    30847    30848 1
   31945    30847    30905 1
   31946    30847    30906 1
   31947    30848    30907 1
   31948    30848    30908 1
   31949    30848    30909 1
   31950    30849    30850 1
   31951    30849    30910 1
   31952    30849    30911 1
   31953    30850    30851 1
   31954    30851    30852 1
   31955    30851    30912 1
   31956    30851    30913 1
   31957    30852    30853 1
   31958    30852    30861 1
   31959    30852    30914 1
   31960    30853    30854 1
   31961    30853    30915 1
   31962    30853    30916 1
   31963    30854    30855 1
   31964    30854    30917 1
   31965    30854    30918 1
   31966    30855    30856 1
   31967    30855    30919 1
   31968    30855    30920 1
   31969    30856    30857 1
   31970    30856    30921 1
   31971    30856    30922 1
   31972    30857    30858 1
   31973    30857    30923 1
   31974    30857    30924 1
   31975    30858    30859 1
   31976    30858    30925 1
   31977    30858    30926 1
   31978    30859    30860 1
   31979    30859    30927 1
   31980    30859    30928 1
   31981    30860    30929 1
   31982    30860    30930 1
   31983    30860    30931 1
   31984    30861    30862 1
   31985    30861    30932 1
   31986    30861    30933 1
   31987    30862    30863 1
   31988    30862    30934 1
   31989    30862    30935 1
   31990    30863    30864 1
   31991    30863    30936 1
   31992    30863    30937 1
   31993    30864    30865 1
   31994    30864    30938 1
   31995    30864    30939 1
   31996    30865    30866 1
   31997    30865    30940 1
   31998    30865    30941 1
   31999    30866    30867 1
   32000    30866    30942 1
   32001    30866    30943 1
   32002    30867    30868 1
   32003    30867    30944 1
   32004    30867    30945 1
   32005    30868    30869 1
   32006    30868    30946 1
   32007    30868    30947 1
   32008    30869    30870 1
   32009    30869    30948 1
   32010    30869    30949 1
   32011    30870    30950 1
   32012    30870    30951 1
   32013    30870    30952 1
   32014    30953    30954 1
   32015    30953    30960 1
   32016    30953    30996 1
   32017    30954    30955 1
   32018    30954    30958 1
   32019    30955    30956 1
   32020    30955    30959 1
   32021    30956    30957 1
   32022    30957    30958 1
   32023    30957    30968 1
   32024    30958    30964 1
   32025    30959    30960 1
   32026    30959    30963 1
   32027    30960    30961 1
   32028    30961    30962 1
   32029    30961    30965 1
   32030    30962    30963 1
   32031    30966    30967 1
   32032    30966    30974 1
   32033    30967    30968 1
   32034    30967    30975 1
   32035    30968    30969 1
   32036    30969    30970 1
   32037    30969    30973 1
   32038    30970    30971 1
   32039    30971    30972 1
   32040    30972    30973 1
   32041    30973    30974 1
   32042    30974    31108 1
   32043    30976    30977 1
   32044    30976    31017 1
   32045    30976    31018 1
   32046    30976    31019 1
   32047    30977    30978 1
   32048    30977    31020 1
   32049    30977    31021 1
   32050    30978    30979 1
   32051    30978    31022 1
   32052    30978    31023 1
   32053    30979    30980 1
   32054    30979    31024 1
   32055    30979    31025 1
   32056    30980    30981 1
   32057    30980    31026 1
   32058    30980    31027 1
   32059    30981    30982 1
   32060    30981    31028 1
   32061    30981    31029 1
   32062    30982    30983 1
   32063    30982    31030 1
   32064    30982    31031 1
   32065    30983    30984 1
   32066    30983    31032 1
   32067    30983    31033 1
   32068    30984    30985 1
   32069    30984    31034 1
   32070    30984    31035 1
   32071    30985    30986 1
   32072    30985    31036 1
   32073    30985    31037 1
   32074    30986    30987 1
   32075    30986    30995 1
   32076    30986    31038 1
   32077    30987    30988 1
   32078    30987    31039 1
   32079    30987    31040 1
   32080    30988    30989 1
   32081    30988    31041 1
   32082    30988    31042 1
   32083    30989    30990 1
   32084    30989    31043 1
   32085    30989    31044 1
   32086    30990    30991 1
   32087    30990    31045 1
   32088    30990    31046 1
   32089    30991    30992 1
   32090    30991    31047 1
   32091    30991    31048 1
   32092    30992    30993 1
   32093    30992    31049 1
   32094    30992    31050 1
   32095    30993    30994 1
   32096    30993    31051 1
   32097    30993    31052 1
   32098    30994    31053 1
   32099    30994    31054 1
   32100    30994    31055 1
   32101    30995    30996 1
   32102    30995    31056 1
   32103    30995    31057 1
   32104    30996    30997 1
   32105    30997    30998 1
   32106    30997    31058 1
   32107    30997    31059 1
   32108    30998    30999 1
   32109    30998    31007 1
   32110    30998    31060 1
   32111    30999    31000 1
   32112    30999    31061 1
   32113    30999    31062 1
   32114    31000    31001 1
   32115    31000    31063 1
   32116    31000    31064 1
   32117    31001    31002 1
   32118    31001    31065 1
   32119    31001    31066 1
   32120    31002    31003 1
   32121    31002    31067 1
   32122    31002    31068 1
   32123    31003    31004 1
   32124    31003    31069 1
   32125    31003    31070 1
   32126    31004    31005 1
   32127    31004    31071 1
   32128    31004    31072 1
   32129    31005    31006 1
   32130    31005    31073 1
   32131    31005    31074 1
   32132    31006    31075 1
   32133    31006    31076 1
   32134    31006    31077 1
   32135    31007    31008 1
   32136    31007    31078 1
   32137    31007    31079 1
   32138    31008    31009 1
   32139    31008    31080 1
   32140    31008    31081 1
   32141    31009    31010 1
   32142    31009    31082 1
   32143    31009    31083 1
   32144    31010    31011 1
   32145    31010    31084 1
   32146    31010    31085 1
   32147    31011    31012 1
   32148    31011    31086 1
   32149    31011    31087 1
   32150    31012    31013 1
   32151    31012    31088 1
   32152    31012    31089 1
   32153    31013    31014 1
   32154    31013    31090 1
   32155    31013    31091 1
   32156    31014    31015 1
   32157    31014    31092 1
   32158    31014    31093 1
   32159    31015    31016 1
   32160    31015    31094 1
   32161    31015    31095 1
   32162    31016    31096 1
   32163    31016    31097 1
   32164    31016    31098 1
   32165    31099    31100 1
   32166    31099    31106 1
   32167    31099    31142 1
   32168    31100    31101 1
   32169    31100    31104 1
   32170    31101    31102 1
   32171    31101    31105 1
   32172    31102    31103 1
   32173    31103    31104 1
   32174    31103    31114 1
   32175    31104    31110 1
   32176    31105    31106 1
   32177    31105    31109 1
   32178    31106    31107 1
   32179    31107    31108 1
   32180    31107    31111 1
   32181    31108    31109 1
   32182    31112    31113 1
   32183    31112    31120 1
   32184    31113    31114 1
   32185    31113    31121 1
   32186    31114    31115 1
   32187    31115    31116 1
   32188    31115    31119 1
   32189    31116    31117 1
   32190    31117    31118 1
   32191    31118    31119 1
   32192    31119    31120 1
   32193    31120    31254 1
   32194    31122    31123 1
   32195    31122    31163 1
   32196    31122    31164 1
   32197    31122    31165 1
   32198    31123    31124 1
   32199    31123    31166 1
   32200    31123    31167 1
   32201    31124    31125 1
   32202    31124    31168 1
   32203    31124    31169 1
   32204    31125    31126 1
   32205    31125    31170 1
   32206    31125    31171 1
   32207    31126    31127 1
   32208    31126    31172 1
   32209    31126    31173 1
   32210    31127    31128 1
   32211    31127    31174 1
   32212    31127    31175 1
   32213    31128    31129 1
   32214    31128    31176 1
   32215    31128    31177 1
   32216    31129    31130 1
   32217    31129    31178 1
   32218    31129    31179 1
   32219    31130    31131 1
   32220    31130    31180 1
   32221    31130    31181 1
   32222    31131    31132 1
   32223    31131    31182 1
   32224    31131    31183 1
   32225    31132    31133 1
   32226    31132    31141 1
   32227    31132    31184 1
   32228    31133    31134 1
   32229    31133    31185 1
   32230    31133    31186 1
   32231    31134    31135 1
   32232    31134    31187 1
   32233    31134    31188 1
   32234    31135    31136 1
   32235    31135    31189 1
   32236    31135    31190 1
   32237    31136    31137 1
   32238    31136    31191 1
   32239    31136    31192 1
   32240    31137    31138 1
   32241    31137    31193 1
   32242    31137    31194 1
   32243    31138    31139 1
   32244    31138    31195 1
   32245    31138    31196 1
   32246    31139    31140 1
   32247    31139    31197 1
   32248    31139    31198 1
   32249    31140    31199 1
   32250    31140    31200 1
   32251    31140    31201 1
   32252    31141    31142 1
   32253    31141    31202 1
   32254    31141    31203 1
   32255    31142    31143 1
   32256    31143    31144 1
   32257    31143    31204 1
   32258    31143    31205 1
   32259    31144    31145 1
   32260    31144    31153 1
   32261    31144    31206 1
   32262    31145    31146 1
   32263    31145    31207 1
   32264    31145    31208 1
   32265    31146    31147 1
   32266    31146    31209 1
   32267    31146    31210 1
   32268    31147    31148 1
   32269    31147    31211 1
   32270    31147    31212 1
   32271    31148    31149 1
   32272    31148    31213 1
   32273    31148    31214 1
   32274    31149    31150 1
   32275    31149    31215 1
   32276    31149    31216 1
   32277    31150    31151 1
   32278    31150    31217 1
   32279    31150    31218 1
   32280    31151    31152 1
   32281    31151    31219 1
   32282    31151    31220 1
   32283    31152    31221 1
   32284    31152    31222 1
   32285    31152    31223 1
   32286    31153    31154 1
   32287    31153    31224 1
   32288    31153    31225 1
   32289    31154    31155 1
   32290    31154    31226 1
   32291    31154    31227 1
   32292    31155    31156 1
   32293    31155    31228 1
   32294    31155    31229 1
   32295    31156    31157 1
   32296    31156    31230 1
   32297    31156    31231 1
   32298    31157    31158 1
   32299    31157    31232 1
   32300    31157    31233 1
   32301    31158    31159 1
   32302    31158    31234 1
   32303    31158    31235 1
   32304    31159    31160 1
   32305    31159    31236 1
   32306    31159    31237 1
   32307    31160    31161 1
   32308    31160    31238 1
   32309    31160    31239 1
   32310    31161    31162 1
   32311    31161    31240 1
   32312    31161    31241 1
   32313    31162    31242 1
   32314    31162    31243 1
   32315    31162    31244 1
   32316    31245    31246 1
   32317    31245    31252 1
   32318    31245    31288 1
   32319    31246    31247 1
   32320    31246    31250 1
   32321    31247    31248 1
   32322    31247    31251 1
   32323    31248    31249 1
   32324    31249    31250 1
   32325    31249    31260 1
   32326    31250    31256 1
   32327    31251    31252 1
   32328    31251    31255 1
   32329    31252    31253 1
   32330    31253    31254 1
   32331    31253    31257 1
   32332    31254    31255 1
   32333    31258    31259 1
   32334    31258    31266 1
   32335    31259    31260 1
   32336    31259    31267 1
   32337    31260    31261 1
   32338    31261    31262 1
   32339    31261    31265 1
   32340    31262    31263 1
   32341    31263    31264 1
   32342    31264    31265 1
   32343    31265    31266 1
   32344    31266    31400 1
   32345    31268    31269 1
   32346    31268    31309 1
   32347    31268    31310 1
   32348    31268    31311 1
   32349    31269    31270 1
   32350    31269    31312 1
   32351    31269    31313 1
   32352    31270    31271 1
   32353    31270    31314 1
   32354    31270    31315 1
   32355    31271    31272 1
   32356    31271    31316 1
   32357    31271    31317 1
   32358    31272    31273 1
   32359    31272    31318 1
   32360    31272    31319 1
   32361    31273    31274 1
   32362    31273    31320 1
   32363    31273    31321 1
   32364    31274    31275 1
   32365    31274    31322 1
   32366    31274    31323 1
   32367    31275    31276 1
   32368    31275    31324 1
   32369    31275    31325 1
   32370    31276    31277 1
   32371    31276    31326 1
   32372    31276    31327 1
   32373    31277    31278 1
   32374    31277    31328 1
   32375    31277    31329 1
   32376    31278    31279 1
   32377    31278    31287 1
   32378    31278    31330 1
   32379    31279    31280 1
   32380    31279    31331 1
   32381    31279    31332 1
   32382    31280    31281 1
   32383    31280    31333 1
   32384    31280    31334 1
   32385    31281    31282 1
   32386    31281    31335 1
   32387    31281    31336 1
   32388    31282    31283 1
   32389    31282    31337 1
   32390    31282    31338 1
   32391    31283    31284 1
   32392    31283    31339 1
   32393    31283    31340 1
   32394    31284    31285 1
   32395    31284    31341 1
   32396    31284    31342 1
   32397    31285    31286 1
   32398    31285    31343 1
   32399    31285    31344 1
   32400    31286    31345 1
   32401    31286    31346 1
   32402    31286    31347 1
   32403    31287    31288 1
   32404    31287    31348 1
   32405    31287    31349 1
   32406    31288    31289 1
   32407    31289    31290 1
   32408    31289    31350 1
   32409    31289    31351 1
   32410    31290    31291 1
   32411    31290    31299 1
   32412    31290    31352 1
   32413    31291    31292 1
   32414    31291    31353 1
   32415    31291    31354 1
   32416    31292    31293 1
   32417    31292    31355 1
   32418    31292    31356 1
   32419    31293    31294 1
   32420    31293    31357 1
   32421    31293    31358 1
   32422    31294    31295 1
   32423    31294    31359 1
   32424    31294    31360 1
   32425    31295    31296 1
   32426    31295    31361 1
   32427    31295    31362 1
   32428    31296    31297 1
   32429    31296    31363 1
   32430    31296    31364 1
   32431    31297    31298 1
   32432    31297    31365 1
   32433    31297    31366 1
   32434    31298    31367 1
   32435    31298    31368 1
   32436    31298    31369 1
   32437    31299    31300 1
   32438    31299    31370 1
   32439    31299    31371 1
   32440    31300    31301 1
   32441    31300    31372 1
   32442    31300    31373 1
   32443    31301    31302 1
   32444    31301    31374 1
   32445    31301    31375 1
   32446    31302    31303 1
   32447    31302    31376 1
   32448    31302    31377 1
   32449    31303    31304 1
   32450    31303    31378 1
   32451    31303    31379 1
   32452    31304    31305 1
   32453    31304    31380 1
   32454    31304    31381 1
   32455    31305    31306 1
   32456    31305    31382 1
   32457    31305    31383 1
   32458    31306    31307 1
   32459    31306    31384 1
   32460    31306    31385 1
   32461    31307    31308 1
   32462    31307    31386 1
   32463    31307    31387 1
   32464    31308    31388 1
   32465    31308    31389 1
   32466    31308    31390 1
   32467    31391    31392 1
   32468    31391    31398 1
   32469    31391    31434 1
   32470    31392    31393 1
   32471    31392    31396 1
   32472    31393    31394 1
   32473    31393    31397 1
   32474    31394    31395 1
   32475    31395    31396 1
   32476    31395    31406 1
   32477    31396    31402 1
   32478    31397    31398 1
   32479    31397    31401 1
   32480    31398    31399 1
   32481    31399    31400 1
   32482    31399    31403 1
   32483    31400    31401 1
   32484    31404    31405 1
   32485    31404    31412 1
   32486    31405    31406 1
   32487    31405    31413 1
   32488    31406    31407 1
   32489    31407    31408 1
   32490    31407    31411 1
   32491    31408    31409 1
   32492    31409    31410 1
   32493    31410    31411 1
   32494    31411    31412 1
   32495    31412    31546 1
   32496    31414    31415 1
   32497    31414    31455 1
   32498    31414    31456 1
   32499    31414    31457 1
   32500    31415    31416 1
   32501    31415    31458 1
   32502    31415    31459 1
   32503    31416    31417 1
   32504    31416    31460 1
   32505    31416    31461 1
   32506    31417    31418 1
   32507    31417    31462 1
   32508    31417    31463 1
   32509    31418    31419 1
   32510    31418    31464 1
   32511    31418    31465 1
   32512    31419    31420 1
   32513    31419    31466 1
   32514    31419    31467 1
   32515    31420    31421 1
   32516    31420    31468 1
   32517    31420    31469 1
   32518    31421    31422 1
   32519    31421    31470 1
   32520    31421    31471 1
   32521    31422    31423 1
   32522    31422    31472 1
   32523    31422    31473 1
   32524    31423    31424 1
   32525    31423    31474 1
   32526    31423    31475 1
   32527    31424    31425 1
   32528    31424    31433 1
   32529    31424    31476 1
   32530    31425    31426 1
   32531    31425    31477 1
   32532    31425    31478 1
   32533    31426    31427 1
   32534    31426    31479 1
   32535    31426    31480 1
   32536    31427    31428 1
   32537    31427    31481 1
   32538    31427    31482 1
   32539    31428    31429 1
   32540    31428    31483 1
   32541    31428    31484 1
   32542    31429    31430 1
   32543    31429    31485 1
   32544    31429    31486 1
   32545    31430    31431 1
   32546    31430    31487 1
   32547    31430    31488 1
   32548    31431    31432 1
   32549    31431    31489 1
   32550    31431    31490 1
   32551    31432    31491 1
   32552    31432    31492 1
   32553    31432    31493 1
   32554    31433    31434 1
   32555    31433    31494 1
   32556    31433    31495 1
   32557    31434    31435 1
   32558    31435    31436 1
   32559    31435    31496 1
   32560    31435    31497 1
   32561    31436    31437 1
   32562    31436    31445 1
   32563    31436    31498 1
   32564    31437    31438 1
   32565    31437    31499 1
   32566    31437    31500 1
   32567    31438    31439 1
   32568    31438    31501 1
   32569    31438    31502 1
   32570    31439    31440 1
   32571    31439    31503 1
   32572    31439    31504 1
   32573    31440    31441 1
   32574    31440    31505 1
   32575    31440    31506 1
   32576    31441    31442 1
   32577    31441    31507 1
   32578    31441    31508 1
   32579    31442    31443 1
   32580    31442    31509 1
   32581    31442    31510 1
   32582    31443    31444 1
   32583    31443    31511 1
   32584    31443    31512 1
   32585    31444    31513 1
   32586    31444    31514 1
   32587    31444    31515 1
   32588    31445    31446 1
   32589    31445    31516 1
   32590    31445    31517 1
   32591    31446    31447 1
   32592    31446    31518 1
   32593    31446    31519 1
   32594    31447    31448 1
   32595    31447    31520 1
   32596    31447    31521 1
   32597    31448    31449 1
   32598    31448    31522 1
   32599    31448    31523 1
   32600    31449    31450 1
   32601    31449    31524 1
   32602    31449    31525 1
   32603    31450    31451 1
   32604    31450    31526 1
   32605    31450    31527 1
   32606    31451    31452 1
   32607    31451    31528 1
   32608    31451    31529 1
   32609    31452    31453 1
   32610    31452    31530 1
   32611    31452    31531 1
   32612    31453    31454 1
   32613    31453    31532 1
   32614    31453    31533 1
   32615    31454    31534 1
   32616    31454    31535 1
   32617    31454    31536 1
   32618    31537    31538 1
   32619    31537    31544 1
   32620    31537    31580 1
   32621    31538    31539 1
   32622    31538    31542 1
   32623    31539    31540 1
   32624    31539    31543 1
   32625    31540    31541 1
   32626    31541    31542 1
   32627    31541    31552 1
   32628    31542    31548 1
   32629    31543    31544 1
   32630    31543    31547 1
   32631    31544    31545 1
   32632    31545    31546 1
   32633    31545    31549 1
   32634    31546    31547 1
   32635    31550    31551 1
   32636    31550    31558 1
   32637    31551    31552 1
   32638    31551    31559 1
   32639    31552    31553 1
   32640    31553    31554 1
   32641    31553    31557 1
   32642    31554    31555 1
   32643    31555    31556 1
   32644    31556    31557 1
   32645    31557    31558 1
   32646    31558    31692 1
   32647    31560    31561 1
   32648    31560    31601 1
   32649    31560    31602 1
   32650    31560    31603 1
   32651    31561    31562 1
   32652    31561    31604 1
   32653    31561    31605 1
   32654    31562    31563 1
   32655    31562    31606 1
   32656    31562    31607 1
   32657    31563    31564 1
   32658    31563    31608 1
   32659    31563    31609 1
   32660    31564    31565 1
   32661    31564    31610 1
   32662    31564    31611 1
   32663    31565    31566 1
   32664    31565    31612 1
   32665    31565    31613 1
   32666    31566    31567 1
   32667    31566    31614 1
   32668    31566    31615 1
   32669    31567    31568 1
   32670    31567    31616 1
   32671    31567    31617 1
   32672    31568    31569 1
   32673    31568    31618 1
   32674    31568    31619 1
   32675    31569    31570 1
   32676    31569    31620 1
   32677    31569    31621 1
   32678    31570    31571 1
   32679    31570    31579 1
   32680    31570    31622 1
   32681    31571    31572 1
   32682    31571    31623 1
   32683    31571    31624 1
   32684    31572    31573 1
   32685    31572    31625 1
   32686    31572    31626 1
   32687    31573    31574 1
   32688    31573    31627 1
   32689    31573    31628 1
   32690    31574    31575 1
   32691    31574    31629 1
   32692    31574    31630 1
   32693    31575    31576 1
   32694    31575    31631 1
   32695    31575    31632 1
   32696    31576    31577 1
   32697    31576    31633 1
   32698    31576    31634 1
   32699    31577    31578 1
   32700    31577    31635 1
   32701    31577    31636 1
   32702    31578    31637 1
   32703    31578    31638 1
   32704    31578    31639 1
   32705    31579    31580 1
   32706    31579    31640 1
   32707    31579    31641 1
   32708    31580    31581 1
   32709    31581    31582 1
   32710    31581    31642 1
   32711    31581    31643 1
   32712    31582    31583 1
   32713    31582    31591 1
   32714    31582    31644 1
   32715    31583    31584 1
   32716    31583    31645 1
   32717    31583    31646 1
   32718    31584    31585 1
   32719    31584    31647 1
   32720    31584    31648 1
   32721    31585    31586 1
   32722    31585    31649 1
   32723    31585    31650 1
   32724    31586    31587 1
   32725    31586    31651 1
   32726    31586    31652 1
   32727    31587    31588 1
   32728    31587    31653 1
   32729    31587    31654 1
   32730    31588    31589 1
   32731    31588    31655 1
   32732    31588    31656 1
   32733    31589    31590 1
   32734    31589    31657 1
   32735    31589    31658 1
   32736    31590    31659 1
   32737    31590    31660 1
   32738    31590    31661 1
   32739    31591    31592 1
   32740    31591    31662 1
   32741    31591    31663 1
   32742    31592    31593 1
   32743    31592    31664 1
   32744    31592    31665 1
   32745    31593    31594 1
   32746    31593    31666 1
   32747    31593    31667 1
   32748    31594    31595 1
   32749    31594    31668 1
   32750    31594    31669 1
   32751    31595    31596 1
   32752    31595    31670 1
   32753    31595    31671 1
   32754    31596    31597 1
   32755    31596    31672 1
   32756    31596    31673 1
   32757    31597    31598 1
   32758    31597    31674 1
   32759    31597    31675 1
   32760    31598    31599 1
   32761    31598    31676 1
   32762    31598    31677 1
   32763    31599    31600 1
   32764    31599    31678 1
   32765    31599    31679 1
   32766    31600    31680 1
   32767    31600    31681 1
   32768    31600    31682 1
   32769    31683    31684 1
   32770    31683    31690 1
   32771    31683    31726 1
   32772    31684    31685 1
   32773    31684    31688 1
   32774    31685    31686 1
   32775    31685    31689 1
   32776    31686    31687 1
   32777    31687    31688 1
   32778    31687    31698 1
   32779    31688    31694 1
   32780    31689    31690 1
   32781    31689    31693 1
   32782    31690    31691 1
   32783    31691    31692 1
   32784    31691    31695 1
   32785    31692    31693 1
   32786    31696    31697 1
   32787    31696    31704 1
   32788    31697    31698 1
   32789    31697    31705 1
   32790    31698    31699 1
   32791    31699    31700 1
   32792    31699    31703 1
   32793    31700    31701 1
   32794    31701    31702 1
   32795    31702    31703 1
   32796    31703    31704 1
   32797    31704    31838 1
   32798    31706    31707 1
   32799    31706    31747 1
   32800    31706    31748 1
   32801    31706    31749 1
   32802    31707    31708 1
   32803    31707    31750 1
   32804    31707    31751 1
   32805    31708    31709 1
   32806    31708    31752 1
   32807    31708    31753 1
   32808    31709    31710 1
   32809    31709    31754 1
   32810    31709    31755 1
   32811    31710    31711 1
   32812    31710    31756 1
   32813    31710    31757 1
   32814    31711    31712 1
   32815    31711    31758 1
   32816    31711    31759 1
   32817    31712    31713 1
   32818    31712    31760 1
   32819    31712    31761 1
   32820    31713    31714 1
   32821    31713    31762 1
   32822    31713    31763 1
   32823    31714    31715 1
   32824    31714    31764 1
   32825    31714    31765 1
   32826    31715    31716 1
   32827    31715    31766 1
   32828    31715    31767 1
   32829    31716    31717 1
   32830    31716    31725 1
   32831    31716    31768 1
   32832    31717    31718 1
   32833    31717    31769 1
   32834    31717    31770 1
   32835    31718    31719 1
   32836    31718    31771 1
   32837    31718    31772 1
   32838    31719    31720 1
   32839    31719    31773 1
   32840    31719    31774 1
   32841    31720    31721 1
   32842    31720    31775 1
   32843    31720    31776 1
   32844    31721    31722 1
   32845    31721    31777 1
   32846    31721    31778 1
   32847    31722    31723 1
   32848    31722    31779 1
   32849    31722    31780 1
   32850    31723    31724 1
   32851    31723    31781 1
   32852    31723    31782 1
   32853    31724    31783 1
   32854    31724    31784 1
   32855    31724    31785 1
   32856    31725    31726 1
   32857    31725    31786 1
   32858    31725    31787 1
   32859    31726    31727 1
   32860    31727    31728 1
   32861    31727    31788 1
   32862    31727    31789 1
   32863    31728    31729 1
   32864    31728    31737 1
   32865    31728    31790 1
   32866    31729    31730 1
   32867    31729    31791 1
   32868    31729    31792 1
   32869    31730    31731 1
   32870    31730    31793 1
   32871    31730    31794 1
   32872    31731    31732 1
   32873    31731    31795 1
   32874    31731    31796 1
   32875    31732    31733 1
   32876    31732    31797 1
   32877    31732    31798 1
   32878    31733    31734 1
   32879    31733    31799 1
   32880    31733    31800 1
   32881    31734    31735 1
   32882    31734    31801 1
   32883    31734    31802 1
   32884    31735    31736 1
   32885    31735    31803 1
   32886    31735    31804 1
   32887    31736    31805 1
   32888    31736    31806 1
   32889    31736    31807 1
   32890    31737    31738 1
   32891    31737    31808 1
   32892    31737    31809 1
   32893    31738    31739 1
   32894    31738    31810 1
   32895    31738    31811 1
   32896    31739    31740 1
   32897    31739    31812 1
   32898    31739    31813 1
   32899    31740    31741 1
   32900    31740    31814 1
   32901    31740    31815 1
   32902    31741    31742 1
   32903    31741    31816 1
   32904    31741    31817 1
   32905    31742    31743 1
   32906    31742    31818 1
   32907    31742    31819 1
   32908    31743    31744 1
   32909    31743    31820 1
   32910    31743    31821 1
   32911    31744    31745 1
   32912    31744    31822 1
   32913    31744    31823 1
   32914    31745    31746 1
   32915    31745    31824 1
   32916    31745    31825 1
   32917    31746    31826 1
   32918    31746    31827 1
   32919    31746    31828 1
   32920    31829    31830 1
   32921    31829    31836 1
   32922    31829    31872 1
   32923    31830    31831 1
   32924    31830    31834 1
   32925    31831    31832 1
   32926    31831    31835 1
   32927    31832    31833 1
   32928    31833    31834 1
   32929    31833    31844 1
   32930    31834    31840 1
   32931    31835    31836 1
   32932    31835    31839 1
   32933    31836    31837 1
   32934    31837    31838 1
   32935    31837    31841 1
   32936    31838    31839 1
   32937    31842    31843 1
   32938    31842    31850 1
   32939    31843    31844 1
   32940    31843    31851 1
   32941    31844    31845 1
   32942    31845    31846 1
   32943    31845    31849 1
   32944    31846    31847 1
   32945    31847    31848 1
   32946    31848    31849 1
   32947    31849    31850 1
   32948    31850    31984 1
   32949    31852    31853 1
   32950    31852    31893 1
   32951    31852    31894 1
   32952    31852    31895 1
   32953    31853    31854 1
   32954    31853    31896 1
   32955    31853    31897 1
   32956    31854    31855 1
   32957    31854    31898 1
   32958    31854    31899 1
   32959    31855    31856 1
   32960    31855    31900 1
   32961    31855    31901 1
   32962    31856    31857 1
   32963    31856    31902 1
   32964    31856    31903 1
   32965    31857    31858 1
   32966    31857    31904 1
   32967    31857    31905 1
   32968    31858    31859 1
   32969    31858    31906 1
   32970    31858    31907 1
   32971    31859    31860 1
   32972    31859    31908 1
   32973    31859    31909 1
   32974    31860    31861 1
   32975    31860    31910 1
   32976    31860    31911 1
   32977    31861    31862 1
   32978    31861    31912 1
   32979    31861    31913 1
   32980    31862    31863 1
   32981    31862    31871 1
   32982    31862    31914 1
   32983    31863    31864 1
   32984    31863    31915 1
   32985    31863    31916 1
   32986    31864    31865 1
   32987    31864    31917 1
   32988    31864    31918 1
   32989    31865    31866 1
   32990    31865    31919 1
   32991    31865    31920 1
   32992    31866    31867 1
   32993    31866    31921 1
   32994    31866    31922 1
   32995    31867    31868 1
   32996    31867    31923 1
   32997    31867    31924 1
   32998    31868    31869 1
   32999    31868    31925 1
   33000    31868    31926 1
   33001    31869    31870 1
   33002    31869    31927 1
   33003    31869    31928 1
   33004    31870    31929 1
   33005    31870    31930 1
   33006    31870    31931 1
   33007    31871    31872 1
   33008    31871    31932 1
   33009    31871    31933 1
   33010    31872    31873 1
   33011    31873    31874 1
   33012    31873    31934 1
   33013    31873    31935 1
   33014    31874    31875 1
   33015    31874    31883 1
   33016    31874    31936 1
   33017    31875    31876 1
   33018    31875    31937 1
   33019    31875    31938 1
   33020    31876    31877 1
   33021    31876    31939 1
   33022    31876    31940 1
   33023    31877    31878 1
   33024    31877    31941 1
   33025    31877    31942 1
   33026    31878    31879 1
   33027    31878    31943 1
   33028    31878    31944 1
   33029    31879    31880 1
   33030    31879    31945 1
   33031    31879    31946 1
   33032    31880    31881 1
   33033    31880    31947 1
   33034    31880    31948 1
   33035    31881    31882 1
   33036    31881    31949 1
   33037    31881    31950 1
   33038    31882    31951 1
   33039    31882    31952 1
   33040    31882    31953 1
   33041    31883    31884 1
   33042    31883    31954 1
   33043    31883    31955 1
   33044    31884    31885 1
   33045    31884    31956 1
   33046    31884    31957 1
   33047    31885    31886 1
   33048    31885    31958 1
   33049    31885    31959 1
   33050    31886    31887 1
   33051    31886    31960 1
   33052    31886    31961 1
   33053    31887    31888 1
   33054    31887    31962 1
   33055    31887    31963 1
   33056    31888    31889 1
   33057    31888    31964 1
   33058    31888    31965 1
   33059    31889    31890 1
   33060    31889    31966 1
   33061    31889    31967 1
   33062    31890    31891 1
   33063    31890    31968 1
   33064    31890    31969 1
   33065    31891    31892 1
   33066    31891    31970 1
   33067    31891    31971 1
   33068    31892    31972 1
   33069    31892    31973 1
   33070    31892    31974 1
   33071    31975    31976 1
   33072    31975    31982 1
   33073    31975    32018 1
   33074    31976    31977 1
   33075    31976    31980 1
   33076    31977    31978 1
   33077    31977    31981 1
   33078    31978    31979 1
   33079    31979    31980 1
   33080    31979    31990 1
   33081    31980    31986 1
   33082    31981    31982 1
   33083    31981    31985 1
   33084    31982    31983 1
   33085    31983    31984 1
   33086    31983    31987 1
   33087    31984    31985 1
   33088    31988    31989 1
   33089    31988    31996 1
   33090    31989    31990 1
   33091    31989    31997 1
   33092    31990    31991 1
   33093    31991    31992 1
   33094    31991    31995 1
   33095    31992    31993 1
   33096    31993    31994 1
   33097    31994    31995 1
   33098    31995    31996 1
   33099    31996    32130 1
   33100    31998    31999 1
   33101    31998    32039 1
   33102    31998    32040 1
   33103    31998    32041 1
   33104    31999    32000 1
   33105    31999    32042 1
   33106    31999    32043 1
   33107    32000    32001 1
   33108    32000    32044 1
   33109    32000    32045 1
   33110    32001    32002 1
   33111    32001    32046 1
   33112    32001    32047 1
   33113    32002    32003 1
   33114    32002    32048 1
   33115    32002    32049 1
   33116    32003    32004 1
   33117    32003    32050 1
   33118    32003    32051 1
   33119    32004    32005 1
   33120    32004    32052 1
   33121    32004    32053 1
   33122    32005    32006 1
   33123    32005    32054 1
   33124    32005    32055 1
   33125    32006    32007 1
   33126    32006    32056 1
   33127    32006    32057 1
   33128    32007    32008 1
   33129    32007    32058 1
   33130    32007    32059 1
   33131    32008    32009 1
   33132    32008    32017 1
   33133    32008    32060 1
   33134    32009    32010 1
   33135    32009    32061 1
   33136    32009    32062 1
   33137    32010    32011 1
   33138    32010    32063 1
   33139    32010    32064 1
   33140    32011    32012 1
   33141    32011    32065 1
   33142    32011    32066 1
   33143    32012    32013 1
   33144    32012    32067 1
   33145    32012    32068 1
   33146    32013    32014 1
   33147    32013    32069 1
   33148    32013    32070 1
   33149    32014    32015 1
   33150    32014    32071 1
   33151    32014    32072 1
   33152    32015    32016 1
   33153    32015    32073 1
   33154    32015    32074 1
   33155    32016    32075 1
   33156    32016    32076 1
   33157    32016    32077 1
   33158    32017    32018 1
   33159    32017    32078 1
   33160    32017    32079 1
   33161    32018    32019 1
   33162    32019    32020 1
   33163    32019    32080 1
   33164    32019    32081 1
   33165    32020    32021 1
   33166    32020    32029 1
   33167    32020    32082 1
   33168    32021    32022 1
   33169    32021    32083 1
   33170    32021    32084 1
   33171    32022    32023 1
   33172    32022    32085 1
   33173    32022    32086 1
   33174    32023    32024 1
   33175    32023    32087 1
   33176    32023    32088 1
   33177    32024    32025 1
   33178    32024    32089 1
   33179    32024    32090 1
   33180    32025    32026 1
   33181    32025    32091 1
   33182    32025    32092 1
   33183    32026    32027 1
   33184    32026    32093 1
   33185    32026    32094 1
   33186    32027    32028 1
   33187    32027    32095 1
   33188    32027    32096 1
   33189    32028    32097 1
   33190    32028    32098 1
   33191    32028    32099 1
   33192    32029    32030 1
   33193    32029    32100 1
   33194    32029    32101 1
   33195    32030    32031 1
   33196    32030    32102 1
   33197    32030    32103 1
   33198    32031    32032 1
   33199    32031    32104 1
   33200    32031    32105 1
   33201    32032    32033 1
   33202    32032    32106 1
   33203    32032    32107 1
   33204    32033    32034 1
   33205    32033    32108 1
   33206    32033    32109 1
   33207    32034    32035 1
   33208    32034    32110 1
   33209    32034    32111 1
   33210    32035    32036 1
   33211    32035    32112 1
   33212    32035    32113 1
   33213    32036    32037 1
   33214    32036    32114 1
   33215    32036    32115 1
   33216    32037    32038 1
   33217    32037    32116 1
   33218    32037    32117 1
   33219    32038    32118 1
   33220    32038    32119 1
   33221    32038    32120 1
   33222    32121    32122 1
   33223    32121    32128 1
   33224    32121    32164 1
   33225    32122    32123 1
   33226    32122    32126 1
   33227    32123    32124 1
   33228    32123    32127 1
   33229    32124    32125 1
   33230    32125    32126 1
   33231    32125    32136 1
   33232    32126    32132 1
   33233    32127    32128 1
   33234    32127    32131 1
   33235    32128    32129 1
   33236    32129    32130 1
   33237    32129    32133 1
   33238    32130    32131 1
   33239    32134    32135 1
   33240    32134    32142 1
   33241    32135    32136 1
   33242    32135    32143 1
   33243    32136    32137 1
   33244    32137    32138 1
   33245    32137    32141 1
   33246    32138    32139 1
   33247    32139    32140 1
   33248    32140    32141 1
   33249    32141    32142 1
   33250    32142    32276 1
   33251    32144    32145 1
   33252    32144    32185 1
   33253    32144    32186 1
   33254    32144    32187 1
   33255    32145    32146 1
   33256    32145    32188 1
   33257    32145    32189 1
   33258    32146    32147 1
   33259    32146    32190 1
   33260    32146    32191 1
   33261    32147    32148 1
   33262    32147    32192 1
   33263    32147    32193 1
   33264    32148    32149 1
   33265    32148    32194 1
   33266    32148    32195 1
   33267    32149    32150 1
   33268    32149    32196 1
   33269    32149    32197 1
   33270    32150    32151 1
   33271    32150    32198 1
   33272    32150    32199 1
   33273    32151    32152 1
   33274    32151    32200 1
   33275    32151    32201 1
   33276    32152    32153 1
   33277    32152    32202 1
   33278    32152    32203 1
   33279    32153    32154 1
   33280    32153    32204 1
   33281    32153    32205 1
   33282    32154    32155 1
   33283    32154    32163 1
   33284    32154    32206 1
   33285    32155    32156 1
   33286    32155    32207 1
   33287    32155    32208 1
   33288    32156    32157 1
   33289    32156    32209 1
   33290    32156    32210 1
   33291    32157    32158 1
   33292    32157    32211 1
   33293    32157    32212 1
   33294    32158    32159 1
   33295    32158    32213 1
   33296    32158    32214 1
   33297    32159    32160 1
   33298    32159    32215 1
   33299    32159    32216 1
   33300    32160    32161 1
   33301    32160    32217 1
   33302    32160    32218 1
   33303    32161    32162 1
   33304    32161    32219 1
   33305    32161    32220 1
   33306    32162    32221 1
   33307    32162    32222 1
   33308    32162    32223 1
   33309    32163    32164 1
   33310    32163    32224 1
   33311    32163    32225 1
   33312    32164    32165 1
   33313    32165    32166 1
   33314    32165    32226 1
   33315    32165    32227 1
   33316    32166    32167 1
   33317    32166    32175 1
   33318    32166    32228 1
   33319    32167    32168 1
   33320    32167    32229 1
   33321    32167    32230 1
   33322    32168    32169 1
   33323    32168    32231 1
   33324    32168    32232 1
   33325    32169    32170 1
   33326    32169    32233 1
   33327    32169    32234 1
   33328    32170    32171 1
   33329    32170    32235 1
   33330    32170    32236 1
   33331    32171    32172 1
   33332    32171    32237 1
   33333    32171    32238 1
   33334    32172    32173 1
   33335    32172    32239 1
   33336    32172    32240 1
   33337    32173    32174 1
   33338    32173    32241 1
   33339    32173    32242 1
   33340    32174    32243 1
   33341    32174    32244 1
   33342    32174    32245 1
   33343    32175    32176 1
   33344    32175    32246 1
   33345    32175    32247 1
   33346    32176    32177 1
   33347    32176    32248 1
   33348    32176    32249 1
   33349    32177    32178 1
   33350    32177    32250 1
   33351    32177    32251 1
   33352    32178    32179 1
   33353    32178    32252 1
   33354    32178    32253 1
   33355    32179    32180 1
   33356    32179    32254 1
   33357    32179    32255 1
   33358    32180    32181 1
   33359    32180    32256 1
   33360    32180    32257 1
   33361    32181    32182 1
   33362    32181    32258 1
   33363    32181    32259 1
   33364    32182    32183 1
   33365    32182    32260 1
   33366    32182    32261 1
   33367    32183    32184 1
   33368    32183    32262 1
   33369    32183    32263 1
   33370    32184    32264 1
   33371    32184    32265 1
   33372    32184    32266 1
   33373    32267    32268 1
   33374    32267    32274 1
   33375    32267    32310 1
   33376    32268    32269 1
   33377    32268    32272 1
   33378    32269    32270 1
   33379    32269    32273 1
   33380    32270    32271 1
   33381    32271    32272 1
   33382    32271    32282 1
   33383    32272    32278 1
   33384    32273    32274 1
   33385    32273    32277 1
   33386    32274    32275 1
   33387    32275    32276 1
   33388    32275    32279 1
   33389    32276    32277 1
   33390    32280    32281 1
   33391    32280    32288 1
   33392    32281    32282 1
   33393    32281    32289 1
   33394    32282    32283 1
   33395    32283    32284 1
   33396    32283    32287 1
   33397    32284    32285 1
   33398    32285    32286 1
   33399    32286    32287 1
   33400    32287    32288 1
   33401    32288    32422 1
   33402    32290    32291 1
   33403    32290    32331 1
   33404    32290    32332 1
   33405    32290    32333 1
   33406    32291    32292 1
   33407    32291    32334 1
   33408    32291    32335 1
   33409    32292    32293 1
   33410    32292    32336 1
   33411    32292    32337 1
   33412    32293    32294 1
   33413    32293    32338 1
   33414    32293    32339 1
   33415    32294    32295 1
   33416    32294    32340 1
   33417    32294    32341 1
   33418    32295    32296 1
   33419    32295    32342 1
   33420    32295    32343 1
   33421    32296    32297 1
   33422    32296    32344 1
   33423    32296    32345 1
   33424    32297    32298 1
   33425    32297    32346 1
   33426    32297    32347 1
   33427    32298    32299 1
   33428    32298    32348 1
   33429    32298    32349 1
   33430    32299    32300 1
   33431    32299    32350 1
   33432    32299    32351 1
   33433    32300    32301 1
   33434    32300    32309 1
   33435    32300    32352 1
   33436    32301    32302 1
   33437    32301    32353 1
   33438    32301    32354 1
   33439    32302    32303 1
   33440    32302    32355 1
   33441    32302    32356 1
   33442    32303    32304 1
   33443    32303    32357 1
   33444    32303    32358 1
   33445    32304    32305 1
   33446    32304    32359 1
   33447    32304    32360 1
   33448    32305    32306 1
   33449    32305    32361 1
   33450    32305    32362 1
   33451    32306    32307 1
   33452    32306    32363 1
   33453    32306    32364 1
   33454    32307    32308 1
   33455    32307    32365 1
   33456    32307    32366 1
   33457    32308    32367 1
   33458    32308    32368 1
   33459    32308    32369 1
   33460    32309    32310 1
   33461    32309    32370 1
   33462    32309    32371 1
   33463    32310    32311 1
   33464    32311    32312 1
   33465    32311    32372 1
   33466    32311    32373 1
   33467    32312    32313 1
   33468    32312    32321 1
   33469    32312    32374 1
   33470    32313    32314 1
   33471    32313    32375 1
   33472    32313    32376 1
   33473    32314    32315 1
   33474    32314    32377 1
   33475    32314    32378 1
   33476    32315    32316 1
   33477    32315    32379 1
   33478    32315    32380 1
   33479    32316    32317 1
   33480    32316    32381 1
   33481    32316    32382 1
   33482    32317    32318 1
   33483    32317    32383 1
   33484    32317    32384 1
   33485    32318    32319 1
   33486    32318    32385 1
   33487    32318    32386 1
   33488    32319    32320 1
   33489    32319    32387 1
   33490    32319    32388 1
   33491    32320    32389 1
   33492    32320    32390 1
   33493    32320    32391 1
   33494    32321    32322 1
   33495    32321    32392 1
   33496    32321    32393 1
   33497    32322    32323 1
   33498    32322    32394 1
   33499    32322    32395 1
   33500    32323    32324 1
   33501    32323    32396 1
   33502    32323    32397 1
   33503    32324    32325 1
   33504    32324    32398 1
   33505    32324    32399 1
   33506    32325    32326 1
   33507    32325    32400 1
   33508    32325    32401 1
   33509    32326    32327 1
   33510    32326    32402 1
   33511    32326    32403 1
   33512    32327    32328 1
   33513    32327    32404 1
   33514    32327    32405 1
   33515    32328    32329 1
   33516    32328    32406 1
   33517    32328    32407 1
   33518    32329    32330 1
   33519    32329    32408 1
   33520    32329    32409 1
   33521    32330    32410 1
   33522    32330    32411 1
   33523    32330    32412 1
   33524    32413    32414 1
   33525    32413    32420 1
   33526    32413    32456 1
   33527    32414    32415 1
   33528    32414    32418 1
   33529    32415    32416 1
   33530    32415    32419 1
   33531    32416    32417 1
   33532    32417    32418 1
   33533    32417    32428 1
   33534    32418    32424 1
   33535    32419    32420 1
   33536    32419    32423 1
   33537    32420    32421 1
   33538    32421    32422 1
   33539    32421    32425 1
   33540    32422    32423 1
   33541    32426    32427 1
   33542    32426    32434 1
   33543    32427    32428 1
   33544    32427    32435 1
   33545    32428    32429 1
   33546    32429    32430 1
   33547    32429    32433 1
   33548    32430    32431 1
   33549    32431    32432 1
   33550    32432    32433 1
   33551    32433    32434 1
   33552    32434    32568 1
   33553    32436    32437 1
   33554    32436    32477 1
   33555    32436    32478 1
   33556    32436    32479 1
   33557    32437    32438 1
   33558    32437    32480 1
   33559    32437    32481 1
   33560    32438    32439 1
   33561    32438    32482 1
   33562    32438    32483 1
   33563    32439    32440 1
   33564    32439    32484 1
   33565    32439    32485 1
   33566    32440    32441 1
   33567    32440    32486 1
   33568    32440    32487 1
   33569    32441    32442 1
   33570    32441    32488 1
   33571    32441    32489 1
   33572    32442    32443 1
   33573    32442    32490 1
   33574    32442    32491 1
   33575    32443    32444 1
   33576    32443    32492 1
   33577    32443    32493 1
   33578    32444    32445 1
   33579    32444    32494 1
   33580    32444    32495 1
   33581    32445    32446 1
   33582    32445    32496 1
   33583    32445    32497 1
   33584    32446    32447 1
   33585    32446    32455 1
   33586    32446    32498 1
   33587    32447    32448 1
   33588    32447    32499 1
   33589    32447    32500 1
   33590    32448    32449 1
   33591    32448    32501 1
   33592    32448    32502 1
   33593    32449    32450 1
   33594    32449    32503 1
   33595    32449    32504 1
   33596    32450    32451 1
   33597    32450    32505 1
   33598    32450    32506 1
   33599    32451    32452 1
   33600    32451    32507 1
   33601    32451    32508 1
   33602    32452    32453 1
   33603    32452    32509 1
   33604    32452    32510 1
   33605    32453    32454 1
   33606    32453    32511 1
   33607    32453    32512 1
   33608    32454    32513 1
   33609    32454    32514 1
   33610    32454    32515 1
   33611    32455    32456 1
   33612    32455    32516 1
   33613    32455    32517 1
   33614    32456    32457 1
   33615    32457    32458 1
   33616    32457    32518 1
   33617    32457    32519 1
   33618    32458    32459 1
   33619    32458    32467 1
   33620    32458    32520 1
   33621    32459    32460 1
   33622    32459    32521 1
   33623    32459    32522 1
   33624    32460    32461 1
   33625    32460    32523 1
   33626    32460    32524 1
   33627    32461    32462 1
   33628    32461    32525 1
   33629    32461    32526 1
   33630    32462    32463 1
   33631    32462    32527 1
   33632    32462    32528 1
   33633    32463    32464 1
   33634    32463    32529 1
   33635    32463    32530 1
   33636    32464    32465 1
   33637    32464    32531 1
   33638    32464    32532 1
   33639    32465    32466 1
   33640    32465    32533 1
   33641    32465    32534 1
   33642    32466    32535 1
   33643    32466    32536 1
   33644    32466    32537 1
   33645    32467    32468 1
   33646    32467    32538 1
   33647    32467    32539 1
   33648    32468    32469 1
   33649    32468    32540 1
   33650    32468    32541 1
   33651    32469    32470 1
   33652    32469    32542 1
   33653    32469    32543 1
   33654    32470    32471 1
   33655    32470    32544 1
   33656    32470    32545 1
   33657    32471    32472 1
   33658    32471    32546 1
   33659    32471    32547 1
   33660    32472    32473 1
   33661    32472    32548 1
   33662    32472    32549 1
   33663    32473    32474 1
   33664    32473    32550 1
   33665    32473    32551 1
   33666    32474    32475 1
   33667    32474    32552 1
   33668    32474    32553 1
   33669    32475    32476 1
   33670    32475    32554 1
   33671    32475    32555 1
   33672    32476    32556 1
   33673    32476    32557 1
   33674    32476    32558 1
   33675    32559    32560 1
   33676    32559    32566 1
   33677    32559    32602 1
   33678    32560    32561 1
   33679    32560    32564 1
   33680    32561    32562 1
   33681    32561    32565 1
   33682    32562    32563 1
   33683    32563    32564 1
   33684    32563    32574 1
   33685    32564    32570 1
   33686    32565    32566 1
   33687    32565    32569 1
   33688    32566    32567 1
   33689    32567    32568 1
   33690    32567    32571 1
   33691    32568    32569 1
   33692    32572    32573 1
   33693    32572    32580 1
   33694    32573    32574 1
   33695    32573    32581 1
   33696    32574    32575 1
   33697    32575    32576 1
   33698    32575    32579 1
   33699    32576    32577 1
   33700    32577    32578 1
   33701    32578    32579 1
   33702    32579    32580 1
   33703    32580    32714 1
   33704    32582    32583 1
   33705    32582    32623 1
   33706    32582    32624 1
   33707    32582    32625 1
   33708    32583    32584 1
   33709    32583    32626 1
   33710    32583    32627 1
   33711    32584    32585 1
   33712    32584    32628 1
   33713    32584    32629 1
   33714    32585    32586 1
   33715    32585    32630 1
   33716    32585    32631 1
   33717    32586    32587 1
   33718    32586    32632 1
   33719    32586    32633 1
   33720    32587    32588 1
   33721    32587    32634 1
   33722    32587    32635 1
   33723    32588    32589 1
   33724    32588    32636 1
   33725    32588    32637 1
   33726    32589    32590 1
   33727    32589    32638 1
   33728    32589    32639 1
   33729    32590    32591 1
   33730    32590    32640 1
   33731    32590    32641 1
   33732    32591    32592 1
   33733    32591    32642 1
   33734    32591    32643 1
   33735    32592    32593 1
   33736    32592    32601 1
   33737    32592    32644 1
   33738    32593    32594 1
   33739    32593    32645 1
   33740    32593    32646 1
   33741    32594    32595 1
   33742    32594    32647 1
   33743    32594    32648 1
   33744    32595    32596 1
   33745    32595    32649 1
   33746    32595    32650 1
   33747    32596    32597 1
   33748    32596    32651 1
   33749    32596    32652 1
   33750    32597    32598 1
   33751    32597    32653 1
   33752    32597    32654 1
   33753    32598    32599 1
   33754    32598    32655 1
   33755    32598    32656 1
   33756    32599    32600 1
   33757    32599    32657 1
   33758    32599    32658 1
   33759    32600    32659 1
   33760    32600    32660 1
   33761    32600    32661 1
   33762    32601    32602 1
   33763    32601    32662 1
   33764    32601    32663 1
   33765    32602    32603 1
   33766    32603    32604 1
   33767    32603    32664 1
   33768    32603    32665 1
   33769    32604    32605 1
   33770    32604    32613 1
   33771    32604    32666 1
   33772    32605    32606 1
   33773    32605    32667 1
   33774    32605    32668 1
   33775    32606    32607 1
   33776    32606    32669 1
   33777    32606    32670 1
   33778    32607    32608 1
   33779    32607    32671 1
   33780    32607    32672 1
   33781    32608    32609 1
   33782    32608    32673 1
   33783    32608    32674 1
   33784    32609    32610 1
   33785    32609    32675 1
   33786    32609    32676 1
   33787    32610    32611 1
   33788    32610    32677 1
   33789    32610    32678 1
   33790    32611    32612 1
   33791    32611    32679 1
   33792    32611    32680 1
   33793    32612    32681 1
   33794    32612    32682 1
   33795    32612    32683 1
   33796    32613    32614 1
   33797    32613    32684 1
   33798    32613    32685 1
   33799    32614    32615 1
   33800    32614    32686 1
   33801    32614    32687 1
   33802    32615    32616 1
   33803    32615    32688 1
   33804    32615    32689 1
   33805    32616    32617 1
   33806    32616    32690 1
   33807    32616    32691 1
   33808    32617    32618 1
   33809    32617    32692 1
   33810    32617    32693 1
   33811    32618    32619 1
   33812    32618    32694 1
   33813    32618    32695 1
   33814    32619    32620 1
   33815    32619    32696 1
   33816    32619    32697 1
   33817    32620    32621 1
   33818    32620    32698 1
   33819    32620    32699 1
   33820    32621    32622 1
   33821    32621    32700 1
   33822    32621    32701 1
   33823    32622    32702 1
   33824    32622    32703 1
   33825    32622    32704 1
   33826    32705    32706 1
   33827    32705    32712 1
   33828    32705    32748 1
   33829    32706    32707 1
   33830    32706    32710 1
   33831    32707    32708 1
   33832    32707    32711 1
   33833    32708    32709 1
   33834    32709    32710 1
   33835    32709    32720 1
   33836    32710    32716 1
   33837    32711    32712 1
   33838    32711    32715 1
   33839    32712    32713 1
   33840    32713    32714 1
   33841    32713    32717 1
   33842    32714    32715 1
   33843    32718    32719 1
   33844    32718    32726 1
   33845    32719    32720 1
   33846    32719    32727 1
   33847    32720    32721 1
   33848    32721    32722 1
   33849    32721    32725 1
   33850    32722    32723 1
   33851    32723    32724 1
   33852    32724    32725 1
   33853    32725    32726 1
   33854    32726    32860 1
   33855    32728    32729 1
   33856    32728    32769 1
   33857    32728    32770 1
   33858    32728    32771 1
   33859    32729    32730 1
   33860    32729    32772 1
   33861    32729    32773 1
   33862    32730    32731 1
   33863    32730    32774 1
   33864    32730    32775 1
   33865    32731    32732 1
   33866    32731    32776 1
   33867    32731    32777 1
   33868    32732    32733 1
   33869    32732    32778 1
   33870    32732    32779 1
   33871    32733    32734 1
   33872    32733    32780 1
   33873    32733    32781 1
   33874    32734    32735 1
   33875    32734    32782 1
   33876    32734    32783 1
   33877    32735    32736 1
   33878    32735    32784 1
   33879    32735    32785 1
   33880    32736    32737 1
   33881    32736    32786 1
   33882    32736    32787 1
   33883    32737    32738 1
   33884    32737    32788 1
   33885    32737    32789 1
   33886    32738    32739 1
   33887    32738    32747 1
   33888    32738    32790 1
   33889    32739    32740 1
   33890    32739    32791 1
   33891    32739    32792 1
   33892    32740    32741 1
   33893    32740    32793 1
   33894    32740    32794 1
   33895    32741    32742 1
   33896    32741    32795 1
   33897    32741    32796 1
   33898    32742    32743 1
   33899    32742    32797 1
   33900    32742    32798 1
   33901    32743    32744 1
   33902    32743    32799 1
   33903    32743    32800 1
   33904    32744    32745 1
   33905    32744    32801 1
   33906    32744    32802 1
   33907    32745    32746 1
   33908    32745    32803 1
   33909    32745    32804 1
   33910    32746    32805 1
   33911    32746    32806 1
   33912    32746    32807 1
   33913    32747    32748 1
   33914    32747    32808 1
   33915    32747    32809 1
   33916    32748    32749 1
   33917    32749    32750 1
   33918    32749    32810 1
   33919    32749    32811 1
   33920    32750    32751 1
   33921    32750    32759 1
   33922    32750    32812 1
   33923    32751    32752 1
   33924    32751    32813 1
   33925    32751    32814 1
   33926    32752    32753 1
   33927    32752    32815 1
   33928    32752    32816 1
   33929    32753    32754 1
   33930    32753    32817 1
   33931    32753    32818 1
   33932    32754    32755 1
   33933    32754    32819 1
   33934    32754    32820 1
   33935    32755    32756 1
   33936    32755    32821 1
   33937    32755    32822 1
   33938    32756    32757 1
   33939    32756    32823 1
   33940    32756    32824 1
   33941    32757    32758 1
   33942    32757    32825 1
   33943    32757    32826 1
   33944    32758    32827 1
   33945    32758    32828 1
   33946    32758    32829 1
   33947    32759    32760 1
   33948    32759    32830 1
   33949    32759    32831 1
   33950    32760    32761 1
   33951    32760    32832 1
   33952    32760    32833 1
   33953    32761    32762 1
   33954    32761    32834 1
   33955    32761    32835 1
   33956    32762    32763 1
   33957    32762    32836 1
   33958    32762    32837 1
   33959    32763    32764 1
   33960    32763    32838 1
   33961    32763    32839 1
   33962    32764    32765 1
   33963    32764    32840 1
   33964    32764    32841 1
   33965    32765    32766 1
   33966    32765    32842 1
   33967    32765    32843 1
   33968    32766    32767 1
   33969    32766    32844 1
   33970    32766    32845 1
   33971    32767    32768 1
   33972    32767    32846 1
   33973    32767    32847 1
   33974    32768    32848 1
   33975    32768    32849 1
   33976    32768    32850 1
   33977    32851    32852 1
   33978    32851    32858 1
   33979    32851    32894 1
   33980    32852    32853 1
   33981    32852    32856 1
   33982    32853    32854 1
   33983    32853    32857 1
   33984    32854    32855 1
   33985    32855    32856 1
   33986    32855    32866 1
   33987    32856    32862 1
   33988    32857    32858 1
   33989    32857    32861 1
   33990    32858    32859 1
   33991    32859    32860 1
   33992    32859    32863 1
   33993    32860    32861 1
   33994    32864    32865 1
   33995    32864    32872 1
   33996    32865    32866 1
   33997    32865    32873 1
   33998    32866    32867 1
   33999    32867    32868 1
   34000    32867    32871 1
   34001    32868    32869 1
   34002    32869    32870 1
   34003    32870    32871 1
   34004    32871    32872 1
   34005    32872    33006 1
   34006    32874    32875 1
   34007    32874    32915 1
   34008    32874    32916 1
   34009    32874    32917 1
   34010    32875    32876 1
   34011    32875    32918 1
   34012    32875    32919 1
   34013    32876    32877 1
   34014    32876    32920 1
   34015    32876    32921 1
   34016    32877    32878 1
   34017    32877    32922 1
   34018    32877    32923 1
   34019    32878    32879 1
   34020    32878    32924 1
   34021    32878    32925 1
   34022    32879    32880 1
   34023    32879    32926 1
   34024    32879    32927 1
   34025    32880    32881 1
   34026    32880    32928 1
   34027    32880    32929 1
   34028    32881    32882 1
   34029    32881    32930 1
   34030    32881    32931 1
   34031    32882    32883 1
   34032    32882    32932 1
   34033    32882    32933 1
   34034    32883    32884 1
   34035    32883    32934 1
   34036    32883    32935 1
   34037    32884    32885 1
   34038    32884    32893 1
   34039    32884    32936 1
   34040    32885    32886 1
   34041    32885    32937 1
   34042    32885    32938 1
   34043    32886    32887 1
   34044    32886    32939 1
   34045    32886    32940 1
   34046    32887    32888 1
   34047    32887    32941 1
   34048    32887    32942 1
   34049    32888    32889 1
   34050    32888    32943 1
   34051    32888    32944 1
   34052    32889    32890 1
   34053    32889    32945 1
   34054    32889    32946 1
   34055    32890    32891 1
   34056    32890    32947 1
   34057    32890    32948 1
   34058    32891    32892 1
   34059    32891    32949 1
   34060    32891    32950 1
   34061    32892    32951 1
   34062    32892    32952 1
   34063    32892    32953 1
   34064    32893    32894 1
   34065    32893    32954 1
   34066    32893    32955 1
   34067    32894    32895 1
   34068    32895    32896 1
   34069    32895    32956 1
   34070    32895    32957 1
   34071    32896    32897 1
   34072    32896    32905 1
   34073    32896    32958 1
   34074    32897    32898 1
   34075    32897    32959 1
   34076    32897    32960 1
   34077    32898    32899 1
   34078    32898    32961 1
   34079    32898    32962 1
   34080    32899    32900 1
   34081    32899    32963 1
   34082    32899    32964 1
   34083    32900    32901 1
   34084    32900    32965 1
   34085    32900    32966 1
   34086    32901    32902 1
   34087    32901    32967 1
   34088    32901    32968 1
   34089    32902    32903 1
   34090    32902    32969 1
   34091    32902    32970 1
   34092    32903    32904 1
   34093    32903    32971 1
   34094    32903    32972 1
   34095    32904    32973 1
   34096    32904    32974 1
   34097    32904    32975 1
   34098    32905    32906 1
   34099    32905    32976 1
   34100    32905    32977 1
   34101    32906    32907 1
   34102    32906    32978 1
   34103    32906    32979 1
   34104    32907    32908 1
   34105    32907    32980 1
   34106    32907    32981 1
   34107    32908    32909 1
   34108    32908    32982 1
   34109    32908    32983 1
   34110    32909    32910 1
   34111    32909    32984 1
   34112    32909    32985 1
   34113    32910    32911 1
   34114    32910    32986 1
   34115    32910    32987 1
   34116    32911    32912 1
   34117    32911    32988 1
   34118    32911    32989 1
   34119    32912    32913 1
   34120    32912    32990 1
   34121    32912    32991 1
   34122    32913    32914 1
   34123    32913    32992 1
   34124    32913    32993 1
   34125    32914    32994 1
   34126    32914    32995 1
   34127    32914    32996 1
   34128    32997    32998 1
   34129    32997    33004 1
   34130    32997    33040 1
   34131    32998    32999 1
   34132    32998    33002 1
   34133    32999    33000 1
   34134    32999    33003 1
   34135    33000    33001 1
   34136    33001    33002 1
   34137    33001    33012 1
   34138    33002    33008 1
   34139    33003    33004 1
   34140    33003    33007 1
   34141    33004    33005 1
   34142    33005    33006 1
   34143    33005    33009 1
   34144    33006    33007 1
   34145    33010    33011 1
   34146    33010    33018 1
   34147    33011    33012 1
   34148    33011    33019 1
   34149    33012    33013 1
   34150    33013    33014 1
   34151    33013    33017 1
   34152    33014    33015 1
   34153    33015    33016 1
   34154    33016    33017 1
   34155    33017    33018 1
   34156    33018    33152 1
   34157    33020    33021 1
   34158    33020    33061 1
   34159    33020    33062 1
   34160    33020    33063 1
   34161    33021    33022 1
   34162    33021    33064 1
   34163    33021    33065 1
   34164    33022    33023 1
   34165    33022    33066 1
   34166    33022    33067 1
   34167    33023    33024 1
   34168    33023    33068 1
   34169    33023    33069 1
   34170    33024    33025 1
   34171    33024    33070 1
   34172    33024    33071 1
   34173    33025    33026 1
   34174    33025    33072 1
   34175    33025    33073 1
   34176    33026    33027 1
   34177    33026    33074 1
   34178    33026    33075 1
   34179    33027    33028 1
   34180    33027    33076 1
   34181    33027    33077 1
   34182    33028    33029 1
   34183    33028    33078 1
   34184    33028    33079 1
   34185    33029    33030 1
   34186    33029    33080 1
   34187    33029    33081 1
   34188    33030    33031 1
   34189    33030    33039 1
   34190    33030    33082 1
   34191    33031    33032 1
   34192    33031    33083 1
   34193    33031    33084 1
   34194    33032    33033 1
   34195    33032    33085 1
   34196    33032    33086 1
   34197    33033    33034 1
   34198    33033    33087 1
   34199    33033    33088 1
   34200    33034    33035 1
   34201    33034    33089 1
   34202    33034    33090 1
   34203    33035    33036 1
   34204    33035    33091 1
   34205    33035    33092 1
   34206    33036    33037 1
   34207    33036    33093 1
   34208    33036    33094 1
   34209    33037    33038 1
   34210    33037    33095 1
   34211    33037    33096 1
   34212    33038    33097 1
   34213    33038    33098 1
   34214    33038    33099 1
   34215    33039    33040 1
   34216    33039    33100 1
   34217    33039    33101 1
   34218    33040    33041 1
   34219    33041    33042 1
   34220    33041    33102 1
   34221    33041    33103 1
   34222    33042    33043 1
   34223    33042    33051 1
   34224    33042    33104 1
   34225    33043    33044 1
   34226    33043    33105 1
   34227    33043    33106 1
   34228    33044    33045 1
   34229    33044    33107 1
   34230    33044    33108 1
   34231    33045    33046 1
   34232    33045    33109 1
   34233    33045    33110 1
   34234    33046    33047 1
   34235    33046    33111 1
   34236    33046    33112 1
   34237    33047    33048 1
   34238    33047    33113 1
   34239    33047    33114 1
   34240    33048    33049 1
   34241    33048    33115 1
   34242    33048    33116 1
   34243    33049    33050 1
   34244    33049    33117 1
   34245    33049    33118 1
   34246    33050    33119 1
   34247    33050    33120 1
   34248    33050    33121 1
   34249    33051    33052 1
   34250    33051    33122 1
   34251    33051    33123 1
   34252    33052    33053 1
   34253    33052    33124 1
   34254    33052    33125 1
   34255    33053    33054 1
   34256    33053    33126 1
   34257    33053    33127 1
   34258    33054    33055 1
   34259    33054    33128 1
   34260    33054    33129 1
   34261    33055    33056 1
   34262    33055    33130 1
   34263    33055    33131 1
   34264    33056    33057 1
   34265    33056    33132 1
   34266    33056    33133 1
   34267    33057    33058 1
   34268    33057    33134 1
   34269    33057    33135 1
   34270    33058    33059 1
   34271    33058    33136 1
   34272    33058    33137 1
   34273    33059    33060 1
   34274    33059    33138 1
   34275    33059    33139 1
   34276    33060    33140 1
   34277    33060    33141 1
   34278    33060    33142 1
   34279    33143    33144 1
   34280    33143    33150 1
   34281    33143    33186 1
   34282    33144    33145 1
   34283    33144    33148 1
   34284    33145    33146 1
   34285    33145    33149 1
   34286    33146    33147 1
   34287    33147    33148 1
   34288    33147    33158 1
   34289    33148    33154 1
   34290    33149    33150 1
   34291    33149    33153 1
   34292    33150    33151 1
   34293    33151    33152 1
   34294    33151    33155 1
   34295    33152    33153 1
   34296    33156    33157 1
   34297    33156    33164 1
   34298    33157    33158 1
   34299    33157    33165 1
   34300    33158    33159 1
   34301    33159    33160 1
   34302    33159    33163 1
   34303    33160    33161 1
   34304    33161    33162 1
   34305    33162    33163 1
   34306    33163    33164 1
   34307    33164    33298 1
   34308    33166    33167 1
   34309    33166    33207 1
   34310    33166    33208 1
   34311    33166    33209 1
   34312    33167    33168 1
   34313    33167    33210 1
   34314    33167    33211 1
   34315    33168    33169 1
   34316    33168    33212 1
   34317    33168    33213 1
   34318    33169    33170 1
   34319    33169    33214 1
   34320    33169    33215 1
   34321    33170    33171 1
   34322    33170    33216 1
   34323    33170    33217 1
   34324    33171    33172 1
   34325    33171    33218 1
   34326    33171    33219 1
   34327    33172    33173 1
   34328    33172    33220 1
   34329    33172    33221 1
   34330    33173    33174 1
   34331    33173    33222 1
   34332    33173    33223 1
   34333    33174    33175 1
   34334    33174    33224 1
   34335    33174    33225 1
   34336    33175    33176 1
   34337    33175    33226 1
   34338    33175    33227 1
   34339    33176    33177 1
   34340    33176    33185 1
   34341    33176    33228 1
   34342    33177    33178 1
   34343    33177    33229 1
   34344    33177    33230 1
   34345    33178    33179 1
   34346    33178    33231 1
   34347    33178    33232 1
   34348    33179    33180 1
   34349    33179    33233 1
   34350    33179    33234 1
   34351    33180    33181 1
   34352    33180    33235 1
   34353    33180    33236 1
   34354    33181    33182 1
   34355    33181    33237 1
   34356    33181    33238 1
   34357    33182    33183 1
   34358    33182    33239 1
   34359    33182    33240 1
   34360    33183    33184 1
   34361    33183    33241 1
   34362    33183    33242 1
   34363    33184    33243 1
   34364    33184    33244 1
   34365    33184    33245 1
   34366    33185    33186 1
   34367    33185    33246 1
   34368    33185    33247 1
   34369    33186    33187 1
   34370    33187    33188 1
   34371    33187    33248 1
   34372    33187    33249 1
   34373    33188    33189 1
   34374    33188    33197 1
   34375    33188    33250 1
   34376    33189    33190 1
   34377    33189    33251 1
   34378    33189    33252 1
   34379    33190    33191 1
   34380    33190    33253 1
   34381    33190    33254 1
   34382    33191    33192 1
   34383    33191    33255 1
   34384    33191    33256 1
   34385    33192    33193 1
   34386    33192    33257 1
   34387    33192    33258 1
   34388    33193    33194 1
   34389    33193    33259 1
   34390    33193    33260 1
   34391    33194    33195 1
   34392    33194    33261 1
   34393    33194    33262 1
   34394    33195    33196 1
   34395    33195    33263 1
   34396    33195    33264 1
   34397    33196    33265 1
   34398    33196    33266 1
   34399    33196    33267 1
   34400    33197    33198 1
   34401    33197    33268 1
   34402    33197    33269 1
   34403    33198    33199 1
   34404    33198    33270 1
   34405    33198    33271 1
   34406    33199    33200 1
   34407    33199    33272 1
   34408    33199    33273 1
   34409    33200    33201 1
   34410    33200    33274 1
   34411    33200    33275 1
   34412    33201    33202 1
   34413    33201    33276 1
   34414    33201    33277 1
   34415    33202    33203 1
   34416    33202    33278 1
   34417    33202    33279 1
   34418    33203    33204 1
   34419    33203    33280 1
   34420    33203    33281 1
   34421    33204    33205 1
   34422    33204    33282 1
   34423    33204    33283 1
   34424    33205    33206 1
   34425    33205    33284 1
   34426    33205    33285 1
   34427    33206    33286 1
   34428    33206    33287 1
   34429    33206    33288 1
   34430    33289    33290 1
   34431    33289    33296 1
   34432    33289    33332 1
   34433    33290    33291 1
   34434    33290    33294 1
   34435    33291    33292 1
   34436    33291    33295 1
   34437    33292    33293 1
   34438    33293    33294 1
   34439    33293    33304 1
   34440    33294    33300 1
   34441    33295    33296 1
   34442    33295    33299 1
   34443    33296    33297 1
   34444    33297    33298 1
   34445    33297    33301 1
   34446    33298    33299 1
   34447    33302    33303 1
   34448    33302    33310 1
   34449    33303    33304 1
   34450    33303    33311 1
   34451    33304    33305 1
   34452    33305    33306 1
   34453    33305    33309 1
   34454    33306    33307 1
   34455    33307    33308 1
   34456    33308    33309 1
   34457    33309    33310 1
   34458    33310    33444 1
   34459    33312    33313 1
   34460    33312    33353 1
   34461    33312    33354 1
   34462    33312    33355 1
   34463    33313    33314 1
   34464    33313    33356 1
   34465    33313    33357 1
   34466    33314    33315 1
   34467    33314    33358 1
   34468    33314    33359 1
   34469    33315    33316 1
   34470    33315    33360 1
   34471    33315    33361 1
   34472    33316    33317 1
   34473    33316    33362 1
   34474    33316    33363 1
   34475    33317    33318 1
   34476    33317    33364 1
   34477    33317    33365 1
   34478    33318    33319 1
   34479    33318    33366 1
   34480    33318    33367 1
   34481    33319    33320 1
   34482    33319    33368 1
   34483    33319    33369 1
   34484    33320    33321 1
   34485    33320    33370 1
   34486    33320    33371 1
   34487    33321    33322 1
   34488    33321    33372 1
   34489    33321    33373 1
   34490    33322    33323 1
   34491    33322    33331 1
   34492    33322    33374 1
   34493    33323    33324 1
   34494    33323    33375 1
   34495    33323    33376 1
   34496    33324    33325 1
   34497    33324    33377 1
   34498    33324    33378 1
   34499    33325    33326 1
   34500    33325    33379 1
   34501    33325    33380 1
   34502    33326    33327 1
   34503    33326    33381 1
   34504    33326    33382 1
   34505    33327    33328 1
   34506    33327    33383 1
   34507    33327    33384 1
   34508    33328    33329 1
   34509    33328    33385 1
   34510    33328    33386 1
   34511    33329    33330 1
   34512    33329    33387 1
   34513    33329    33388 1
   34514    33330    33389 1
   34515    33330    33390 1
   34516    33330    33391 1
   34517    33331    33332 1
   34518    33331    33392 1
   34519    33331    33393 1
   34520    33332    33333 1
   34521    33333    33334 1
   34522    33333    33394 1
   34523    33333    33395 1
   34524    33334    33335 1
   34525    33334    33343 1
   34526    33334    33396 1
   34527    33335    33336 1
   34528    33335    33397 1
   34529    33335    33398 1
   34530    33336    33337 1
   34531    33336    33399 1
   34532    33336    33400 1
   34533    33337    33338 1
   34534    33337    33401 1
   34535    33337    33402 1
   34536    33338    33339 1
   34537    33338    33403 1
   34538    33338    33404 1
   34539    33339    33340 1
   34540    33339    33405 1
   34541    33339    33406 1
   34542    33340    33341 1
   34543    33340    33407 1
   34544    33340    33408 1
   34545    33341    33342 1
   34546    33341    33409 1
   34547    33341    33410 1
   34548    33342    33411 1
   34549    33342    33412 1
   34550    33342    33413 1
   34551    33343    33344 1
   34552    33343    33414 1
   34553    33343    33415 1
   34554    33344    33345 1
   34555    33344    33416 1
   34556    33344    33417 1
   34557    33345    33346 1
   34558    33345    33418 1
   34559    33345    33419 1
   34560    33346    33347 1
   34561    33346    33420 1
   34562    33346    33421 1
   34563    33347    33348 1
   34564    33347    33422 1
   34565    33347    33423 1
   34566    33348    33349 1
   34567    33348    33424 1
   34568    33348    33425 1
   34569    33349    33350 1
   34570    33349    33426 1
   34571    33349    33427 1
   34572    33350    33351 1
   34573    33350    33428 1
   34574    33350    33429 1
   34575    33351    33352 1
   34576    33351    33430 1
   34577    33351    33431 1
   34578    33352    33432 1
   34579    33352    33433 1
   34580    33352    33434 1
   34581    33435    33436 1
   34582    33435    33442 1
   34583    33435    33478 1
   34584    33436    33437 1
   34585    33436    33440 1
   34586    33437    33438 1
   34587    33437    33441 1
   34588    33438    33439 1
   34589    33439    33440 1
   34590    33439    33450 1
   34591    33440    33446 1
   34592    33441    33442 1
   34593    33441    33445 1
   34594    33442    33443 1
   34595    33443    33444 1
   34596    33443    33447 1
   34597    33444    33445 1
   34598    33448    33449 1
   34599    33448    33456 1
   34600    33449    33450 1
   34601    33449    33457 1
   34602    33450    33451 1
   34603    33451    33452 1
   34604    33451    33455 1
   34605    33452    33453 1
   34606    33453    33454 1
   34607    33454    33455 1
   34608    33455    33456 1
   34609    33456    33590 1
   34610    33458    33459 1
   34611    33458    33499 1
   34612    33458    33500 1
   34613    33458    33501 1
   34614    33459    33460 1
   34615    33459    33502 1
   34616    33459    33503 1
   34617    33460    33461 1
   34618    33460    33504 1
   34619    33460    33505 1
   34620    33461    33462 1
   34621    33461    33506 1
   34622    33461    33507 1
   34623    33462    33463 1
   34624    33462    33508 1
   34625    33462    33509 1
   34626    33463    33464 1
   34627    33463    33510 1
   34628    33463    33511 1
   34629    33464    33465 1
   34630    33464    33512 1
   34631    33464    33513 1
   34632    33465    33466 1
   34633    33465    33514 1
   34634    33465    33515 1
   34635    33466    33467 1
   34636    33466    33516 1
   34637    33466    33517 1
   34638    33467    33468 1
   34639    33467    33518 1
   34640    33467    33519 1
   34641    33468    33469 1
   34642    33468    33477 1
   34643    33468    33520 1
   34644    33469    33470 1
   34645    33469    33521 1
   34646    33469    33522 1
   34647    33470    33471 1
   34648    33470    33523 1
   34649    33470    33524 1
   34650    33471    33472 1
   34651    33471    33525 1
   34652    33471    33526 1
   34653    33472    33473 1
   34654    33472    33527 1
   34655    33472    33528 1
   34656    33473    33474 1
   34657    33473    33529 1
   34658    33473    33530 1
   34659    33474    33475 1
   34660    33474    33531 1
   34661    33474    33532 1
   34662    33475    33476 1
   34663    33475    33533 1
   34664    33475    33534 1
   34665    33476    33535 1
   34666    33476    33536 1
   34667    33476    33537 1
   34668    33477    33478 1
   34669    33477    33538 1
   34670    33477    33539 1
   34671    33478    33479 1
   34672    33479    33480 1
   34673    33479    33540 1
   34674    33479    33541 1
   34675    33480    33481 1
   34676    33480    33489 1
   34677    33480    33542 1
   34678    33481    33482 1
   34679    33481    33543 1
   34680    33481    33544 1
   34681    33482    33483 1
   34682    33482    33545 1
   34683    33482    33546 1
   34684    33483    33484 1
   34685    33483    33547 1
   34686    33483    33548 1
   34687    33484    33485 1
   34688    33484    33549 1
   34689    33484    33550 1
   34690    33485    33486 1
   34691    33485    33551 1
   34692    33485    33552 1
   34693    33486    33487 1
   34694    33486    33553 1
   34695    33486    33554 1
   34696    33487    33488 1
   34697    33487    33555 1
   34698    33487    33556 1
   34699    33488    33557 1
   34700    33488    33558 1
   34701    33488    33559 1
   34702    33489    33490 1
   34703    33489    33560 1
   34704    33489    33561 1
   34705    33490    33491 1
   34706    33490    33562 1
   34707    33490    33563 1
   34708    33491    33492 1
   34709    33491    33564 1
   34710    33491    33565 1
   34711    33492    33493 1
   34712    33492    33566 1
   34713    33492    33567 1
   34714    33493    33494 1
   34715    33493    33568 1
   34716    33493    33569 1
   34717    33494    33495 1
   34718    33494    33570 1
   34719    33494    33571 1
   34720    33495    33496 1
   34721    33495    33572 1
   34722    33495    33573 1
   34723    33496    33497 1
   34724    33496    33574 1
   34725    33496    33575 1
   34726    33497    33498 1
   34727    33497    33576 1
   34728    33497    33577 1
   34729    33498    33578 1
   34730    33498    33579 1
   34731    33498    33580 1
   34732    33581    33582 1
   34733    33581    33588 1
   34734    33581    33624 1
   34735    33582    33583 1
   34736    33582    33586 1
   34737    33583    33584 1
   34738    33583    33587 1
   34739    33584    33585 1
   34740    33585    33586 1
   34741    33585    33596 1
   34742    33586    33592 1
   34743    33587    33588 1
   34744    33587    33591 1
   34745    33588    33589 1
   34746    33589    33590 1
   34747    33589    33593 1
   34748    33590    33591 1
   34749    33594    33595 1
   34750    33594    33602 1
   34751    33595    33596 1
   34752    33595    33603 1
   34753    33596    33597 1
   34754    33597    33598 1
   34755    33597    33601 1
   34756    33598    33599 1
   34757    33599    33600 1
   34758    33600    33601 1
   34759    33601    33602 1
   34760    33602    33736 1
   34761    33604    33605 1
   34762    33604    33645 1
   34763    33604    33646 1
   34764    33604    33647 1
   34765    33605    33606 1
   34766    33605    33648 1
   34767    33605    33649 1
   34768    33606    33607 1
   34769    33606    33650 1
   34770    33606    33651 1
   34771    33607    33608 1
   34772    33607    33652 1
   34773    33607    33653 1
   34774    33608    33609 1
   34775    33608    33654 1
   34776    33608    33655 1
   34777    33609    33610 1
   34778    33609    33656 1
   34779    33609    33657 1
   34780    33610    33611 1
   34781    33610    33658 1
   34782    33610    33659 1
   34783    33611    33612 1
   34784    33611    33660 1
   34785    33611    33661 1
   34786    33612    33613 1
   34787    33612    33662 1
   34788    33612    33663 1
   34789    33613    33614 1
   34790    33613    33664 1
   34791    33613    33665 1
   34792    33614    33615 1
   34793    33614    33623 1
   34794    33614    33666 1
   34795    33615    33616 1
   34796    33615    33667 1
   34797    33615    33668 1
   34798    33616    33617 1
   34799    33616    33669 1
   34800    33616    33670 1
   34801    33617    33618 1
   34802    33617    33671 1
   34803    33617    33672 1
   34804    33618    33619 1
   34805    33618    33673 1
   34806    33618    33674 1
   34807    33619    33620 1
   34808    33619    33675 1
   34809    33619    33676 1
   34810    33620    33621 1
   34811    33620    33677 1
   34812    33620    33678 1
   34813    33621    33622 1
   34814    33621    33679 1
   34815    33621    33680 1
   34816    33622    33681 1
   34817    33622    33682 1
   34818    33622    33683 1
   34819    33623    33624 1
   34820    33623    33684 1
   34821    33623    33685 1
   34822    33624    33625 1
   34823    33625    33626 1
   34824    33625    33686 1
   34825    33625    33687 1
   34826    33626    33627 1
   34827    33626    33635 1
   34828    33626    33688 1
   34829    33627    33628 1
   34830    33627    33689 1
   34831    33627    33690 1
   34832    33628    33629 1
   34833    33628    33691 1
   34834    33628    33692 1
   34835    33629    33630 1
   34836    33629    33693 1
   34837    33629    33694 1
   34838    33630    33631 1
   34839    33630    33695 1
   34840    33630    33696 1
   34841    33631    33632 1
   34842    33631    33697 1
   34843    33631    33698 1
   34844    33632    33633 1
   34845    33632    33699 1
   34846    33632    33700 1
   34847    33633    33634 1
   34848    33633    33701 1
   34849    33633    33702 1
   34850    33634    33703 1
   34851    33634    33704 1
   34852    33634    33705 1
   34853    33635    33636 1
   34854    33635    33706 1
   34855    33635    33707 1
   34856    33636    33637 1
   34857    33636    33708 1
   34858    33636    33709 1
   34859    33637    33638 1
   34860    33637    33710 1
   34861    33637    33711 1
   34862    33638    33639 1
   34863    33638    33712 1
   34864    33638    33713 1
   34865    33639    33640 1
   34866    33639    33714 1
   34867    33639    33715 1
   34868    33640    33641 1
   34869    33640    33716 1
   34870    33640    33717 1
   34871    33641    33642 1
   34872    33641    33718 1
   34873    33641    33719 1
   34874    33642    33643 1
   34875    33642    33720 1
   34876    33642    33721 1
   34877    33643    33644 1
   34878    33643    33722 1
   34879    33643    33723 1
   34880    33644    33724 1
   34881    33644    33725 1
   34882    33644    33726 1
   34883    33727    33728 1
   34884    33727    33734 1
   34885    33727    33770 1
   34886    33728    33729 1
   34887    33728    33732 1
   34888    33729    33730 1
   34889    33729    33733 1
   34890    33730    33731 1
   34891    33731    33732 1
   34892    33731    33742 1
   34893    33732    33738 1
   34894    33733    33734 1
   34895    33733    33737 1
   34896    33734    33735 1
   34897    33735    33736 1
   34898    33735    33739 1
   34899    33736    33737 1
   34900    33740    33741 1
   34901    33740    33748 1
   34902    33741    33742 1
   34903    33741    33749 1
   34904    33742    33743 1
   34905    33743    33744 1
   34906    33743    33747 1
   34907    33744    33745 1
   34908    33745    33746 1
   34909    33746    33747 1
   34910    33747    33748 1
   34911    33748    33882 1
   34912    33750    33751 1
   34913    33750    33791 1
   34914    33750    33792 1
   34915    33750    33793 1
   34916    33751    33752 1
   34917    33751    33794 1
   34918    33751    33795 1
   34919    33752    33753 1
   34920    33752    33796 1
   34921    33752    33797 1
   34922    33753    33754 1
   34923    33753    33798 1
   34924    33753    33799 1
   34925    33754    33755 1
   34926    33754    33800 1
   34927    33754    33801 1
   34928    33755    33756 1
   34929    33755    33802 1
   34930    33755    33803 1
   34931    33756    33757 1
   34932    33756    33804 1
   34933    33756    33805 1
   34934    33757    33758 1
   34935    33757    33806 1
   34936    33757    33807 1
   34937    33758    33759 1
   34938    33758    33808 1
   34939    33758    33809 1
   34940    33759    33760 1
   34941    33759    33810 1
   34942    33759    33811 1
   34943    33760    33761 1
   34944    33760    33769 1
   34945    33760    33812 1
   34946    33761    33762 1
   34947    33761    33813 1
   34948    33761    33814 1
   34949    33762    33763 1
   34950    33762    33815 1
   34951    33762    33816 1
   34952    33763    33764 1
   34953    33763    33817 1
   34954    33763    33818 1
   34955    33764    33765 1
   34956    33764    33819 1
   34957    33764    33820 1
   34958    33765    33766 1
   34959    33765    33821 1
   34960    33765    33822 1
   34961    33766    33767 1
   34962    33766    33823 1
   34963    33766    33824 1
   34964    33767    33768 1
   34965    33767    33825 1
   34966    33767    33826 1
   34967    33768    33827 1
   34968    33768    33828 1
   34969    33768    33829 1
   34970    33769    33770 1
   34971    33769    33830 1
   34972    33769    33831 1
   34973    33770    33771 1
   34974    33771    33772 1
   34975    33771    33832 1
   34976    33771    33833 1
   34977    33772    33773 1
   34978    33772    33781 1
   34979    33772    33834 1
   34980    33773    33774 1
   34981    33773    33835 1
   34982    33773    33836 1
   34983    33774    33775 1
   34984    33774    33837 1
   34985    33774    33838 1
   34986    33775    33776 1
   34987    33775    33839 1
   34988    33775    33840 1
   34989    33776    33777 1
   34990    33776    33841 1
   34991    33776    33842 1
   34992    33777    33778 1
   34993    33777    33843 1
   34994    33777    33844 1
   34995    33778    33779 1
   34996    33778    33845 1
   34997    33778    33846 1
   34998    33779    33780 1
   34999    33779    33847 1
   35000    33779    33848 1
   35001    33780    33849 1
   35002    33780    33850 1
   35003    33780    33851 1
   35004    33781    33782 1
   35005    33781    33852 1
   35006    33781    33853 1
   35007    33782    33783 1
   35008    33782    33854 1
   35009    33782    33855 1
   35010    33783    33784 1
   35011    33783    33856 1
   35012    33783    33857 1
   35013    33784    33785 1
   35014    33784    33858 1
   35015    33784    33859 1
   35016    33785    33786 1
   35017    33785    33860 1
   35018    33785    33861 1
   35019    33786    33787 1
   35020    33786    33862 1
   35021    33786    33863 1
   35022    33787    33788 1
   35023    33787    33864 1
   35024    33787    33865 1
   35025    33788    33789 1
   35026    33788    33866 1
   35027    33788    33867 1
   35028    33789    33790 1
   35029    33789    33868 1
   35030    33789    33869 1
   35031    33790    33870 1
   35032    33790    33871 1
   35033    33790    33872 1
   35034    33873    33874 1
   35035    33873    33880 1
   35036    33873    33916 1
   35037    33874    33875 1
   35038    33874    33878 1
   35039    33875    33876 1
   35040    33875    33879 1
   35041    33876    33877 1
   35042    33877    33878 1
   35043    33877    33888 1
   35044    33878    33884 1
   35045    33879    33880 1
   35046    33879    33883 1
   35047    33880    33881 1
   35048    33881    33882 1
   35049    33881    33885 1
   35050    33882    33883 1
   35051    33886    33887 1
   35052    33886    33894 1
   35053    33887    33888 1
   35054    33887    33895 1
   35055    33888    33889 1
   35056    33889    33890 1
   35057    33889    33893 1
   35058    33890    33891 1
   35059    33891    33892 1
   35060    33892    33893 1
   35061    33893    33894 1
   35062    33894    34028 1
   35063    33896    33897 1
   35064    33896    33937 1
   35065    33896    33938 1
   35066    33896    33939 1
   35067    33897    33898 1
   35068    33897    33940 1
   35069    33897    33941 1
   35070    33898    33899 1
   35071    33898    33942 1
   35072    33898    33943 1
   35073    33899    33900 1
   35074    33899    33944 1
   35075    33899    33945 1
   35076    33900    33901 1
   35077    33900    33946 1
   35078    33900    33947 1
   35079    33901    33902 1
   35080    33901    33948 1
   35081    33901    33949 1
   35082    33902    33903 1
   35083    33902    33950 1
   35084    33902    33951 1
   35085    33903    33904 1
   35086    33903    33952 1
   35087    33903    33953 1
   35088    33904    33905 1
   35089    33904    33954 1
   35090    33904    33955 1
   35091    33905    33906 1
   35092    33905    33956 1
   35093    33905    33957 1
   35094    33906    33907 1
   35095    33906    33915 1
   35096    33906    33958 1
   35097    33907    33908 1
   35098    33907    33959 1
   35099    33907    33960 1
   35100    33908    33909 1
   35101    33908    33961 1
   35102    33908    33962 1
   35103    33909    33910 1
   35104    33909    33963 1
   35105    33909    33964 1
   35106    33910    33911 1
   35107    33910    33965 1
   35108    33910    33966 1
   35109    33911    33912 1
   35110    33911    33967 1
   35111    33911    33968 1
   35112    33912    33913 1
   35113    33912    33969 1
   35114    33912    33970 1
   35115    33913    33914 1
   35116    33913    33971 1
   35117    33913    33972 1
   35118    33914    33973 1
   35119    33914    33974 1
   35120    33914    33975 1
   35121    33915    33916 1
   35122    33915    33976 1
   35123    33915    33977 1
   35124    33916    33917 1
   35125    33917    33918 1
   35126    33917    33978 1
   35127    33917    33979 1
   35128    33918    33919 1
   35129    33918    33927 1
   35130    33918    33980 1
   35131    33919    33920 1
   35132    33919    33981 1
   35133    33919    33982 1
   35134    33920    33921 1
   35135    33920    33983 1
   35136    33920    33984 1
   35137    33921    33922 1
   35138    33921    33985 1
   35139    33921    33986 1
   35140    33922    33923 1
   35141    33922    33987 1
   35142    33922    33988 1
   35143    33923    33924 1
   35144    33923    33989 1
   35145    33923    33990 1
   35146    33924    33925 1
   35147    33924    33991 1
   35148    33924    33992 1
   35149    33925    33926 1
   35150    33925    33993 1
   35151    33925    33994 1
   35152    33926    33995 1
   35153    33926    33996 1
   35154    33926    33997 1
   35155    33927    33928 1
   35156    33927    33998 1
   35157    33927    33999 1
   35158    33928    33929 1
   35159    33928    34000 1
   35160    33928    34001 1
   35161    33929    33930 1
   35162    33929    34002 1
   35163    33929    34003 1
   35164    33930    33931 1
   35165    33930    34004 1
   35166    33930    34005 1
   35167    33931    33932 1
   35168    33931    34006 1
   35169    33931    34007 1
   35170    33932    33933 1
   35171    33932    34008 1
   35172    33932    34009 1
   35173    33933    33934 1
   35174    33933    34010 1
   35175    33933    34011 1
   35176    33934    33935 1
   35177    33934    34012 1
   35178    33934    34013 1
   35179    33935    33936 1
   35180    33935    34014 1
   35181    33935    34015 1
   35182    33936    34016 1
   35183    33936    34017 1
   35184    33936    34018 1
   35185    34019    34020 1
   35186    34019    34026 1
   35187    34019    34062 1
   35188    34020    34021 1
   35189    34020    34024 1
   35190    34021    34022 1
   35191    34021    34025 1
   35192    34022    34023 1
   35193    34023    34024 1
   35194    34023    34034 1
   35195    34024    34030 1
   35196    34025    34026 1
   35197    34025    34029 1
   35198    34026    34027 1
   35199    34027    34028 1
   35200    34027    34031 1
   35201    34028    34029 1
   35202    34032    34033 1
   35203    34032    34040 1
   35204    34033    34034 1
   35205    34033    34041 1
   35206    34034    34035 1
   35207    34035    34036 1
   35208    34035    34039 1
   35209    34036    34037 1
   35210    34037    34038 1
   35211    34038    34039 1
   35212    34039    34040 1
   35213    34040    34174 1
   35214    34042    34043 1
   35215    34042    34083 1
   35216    34042    34084 1
   35217    34042    34085 1
   35218    34043    34044 1
   35219    34043    34086 1
   35220    34043    34087 1
   35221    34044    34045 1
   35222    34044    34088 1
   35223    34044    34089 1
   35224    34045    34046 1
   35225    34045    34090 1
   35226    34045    34091 1
   35227    34046    34047 1
   35228    34046    34092 1
   35229    34046    34093 1
   35230    34047    34048 1
   35231    34047    34094 1
   35232    34047    34095 1
   35233    34048    34049 1
   35234    34048    34096 1
   35235    34048    34097 1
   35236    34049    34050 1
   35237    34049    34098 1
   35238    34049    34099 1
   35239    34050    34051 1
   35240    34050    34100 1
   35241    34050    34101 1
   35242    34051    34052 1
   35243    34051    34102 1
   35244    34051    34103 1
   35245    34052    34053 1
   35246    34052    34061 1
   35247    34052    34104 1
   35248    34053    34054 1
   35249    34053    34105 1
   35250    34053    34106 1
   35251    34054    34055 1
   35252    34054    34107 1
   35253    34054    34108 1
   35254    34055    34056 1
   35255    34055    34109 1
   35256    34055    34110 1
   35257    34056    34057 1
   35258    34056    34111 1
   35259    34056    34112 1
   35260    34057    34058 1
   35261    34057    34113 1
   35262    34057    34114 1
   35263    34058    34059 1
   35264    34058    34115 1
   35265    34058    34116 1
   35266    34059    34060 1
   35267    34059    34117 1
   35268    34059    34118 1
   35269    34060    34119 1
   35270    34060    34120 1
   35271    34060    34121 1
   35272    34061    34062 1
   35273    34061    34122 1
   35274    34061    34123 1
   35275    34062    34063 1
   35276    34063    34064 1
   35277    34063    34124 1
   35278    34063    34125 1
   35279    34064    34065 1
   35280    34064    34073 1
   35281    34064    34126 1
   35282    34065    34066 1
   35283    34065    34127 1
   35284    34065    34128 1
   35285    34066    34067 1
   35286    34066    34129 1
   35287    34066    34130 1
   35288    34067    34068 1
   35289    34067    34131 1
   35290    34067    34132 1
   35291    34068    34069 1
   35292    34068    34133 1
   35293    34068    34134 1
   35294    34069    34070 1
   35295    34069    34135 1
   35296    34069    34136 1
   35297    34070    34071 1
   35298    34070    34137 1
   35299    34070    34138 1
   35300    34071    34072 1
   35301    34071    34139 1
   35302    34071    34140 1
   35303    34072    34141 1
   35304    34072    34142 1
   35305    34072    34143 1
   35306    34073    34074 1
   35307    34073    34144 1
   35308    34073    34145 1
   35309    34074    34075 1
   35310    34074    34146 1
   35311    34074    34147 1
   35312    34075    34076 1
   35313    34075    34148 1
   35314    34075    34149 1
   35315    34076    34077 1
   35316    34076    34150 1
   35317    34076    34151 1
   35318    34077    34078 1
   35319    34077    34152 1
   35320    34077    34153 1
   35321    34078    34079 1
   35322    34078    34154 1
   35323    34078    34155 1
   35324    34079    34080 1
   35325    34079    34156 1
   35326    34079    34157 1
   35327    34080    34081 1
   35328    34080    34158 1
   35329    34080    34159 1
   35330    34081    34082 1
   35331    34081    34160 1
   35332    34081    34161 1
   35333    34082    34162 1
   35334    34082    34163 1
   35335    34082    34164 1
   35336    34165    34166 1
   35337    34165    34172 1
   35338    34165    34208 1
   35339    34166    34167 1
   35340    34166    34170 1
   35341    34167    34168 1
   35342    34167    34171 1
   35343    34168    34169 1
   35344    34169    34170 1
   35345    34169    34180 1
   35346    34170    34176 1
   35347    34171    34172 1
   35348    34171    34175 1
   35349    34172    34173 1
   35350    34173    34174 1
   35351    34173    34177 1
   35352    34174    34175 1
   35353    34178    34179 1
   35354    34178    34186 1
   35355    34179    34180 1
   35356    34179    34187 1
   35357    34180    34181 1
   35358    34181    34182 1
   35359    34181    34185 1
   35360    34182    34183 1
   35361    34183    34184 1
   35362    34184    34185 1
   35363    34185    34186 1
   35364    34186    34320 1
   35365    34188    34189 1
   35366    34188    34229 1
   35367    34188    34230 1
   35368    34188    34231 1
   35369    34189    34190 1
   35370    34189    34232 1
   35371    34189    34233 1
   35372    34190    34191 1
   35373    34190    34234 1
   35374    34190    34235 1
   35375    34191    34192 1
   35376    34191    34236 1
   35377    34191    34237 1
   35378    34192    34193 1
   35379    34192    34238 1
   35380    34192    34239 1
   35381    34193    34194 1
   35382    34193    34240 1
   35383    34193    34241 1
   35384    34194    34195 1
   35385    34194    34242 1
   35386    34194    34243 1
   35387    34195    34196 1
   35388    34195    34244 1
   35389    34195    34245 1
   35390    34196    34197 1
   35391    34196    34246 1
   35392    34196    34247 1
   35393    34197    34198 1
   35394    34197    34248 1
   35395    34197    34249 1
   35396    34198    34199 1
   35397    34198    34207 1
   35398    34198    34250 1
   35399    34199    34200 1
   35400    34199    34251 1
   35401    34199    34252 1
   35402    34200    34201 1
   35403    34200    34253 1
   35404    34200    34254 1
   35405    34201    34202 1
   35406    34201    34255 1
   35407    34201    34256 1
   35408    34202    34203 1
   35409    34202    34257 1
   35410    34202    34258 1
   35411    34203    34204 1
   35412    34203    34259 1
   35413    34203    34260 1
   35414    34204    34205 1
   35415    34204    34261 1
   35416    34204    34262 1
   35417    34205    34206 1
   35418    34205    34263 1
   35419    34205    34264 1
   35420    34206    34265 1
   35421    34206    34266 1
   35422    34206    34267 1
   35423    34207    34208 1
   35424    34207    34268 1
   35425    34207    34269 1
   35426    34208    34209 1
   35427    34209    34210 1
   35428    34209    34270 1
   35429    34209    34271 1
   35430    34210    34211 1
   35431    34210    34219 1
   35432    34210    34272 1
   35433    34211    34212 1
   35434    34211    34273 1
   35435    34211    34274 1
   35436    34212    34213 1
   35437    34212    34275 1
   35438    34212    34276 1
   35439    34213    34214 1
   35440    34213    34277 1
   35441    34213    34278 1
   35442    34214    34215 1
   35443    34214    34279 1
   35444    34214    34280 1
   35445    34215    34216 1
   35446    34215    34281 1
   35447    34215    34282 1
   35448    34216    34217 1
   35449    34216    34283 1
   35450    34216    34284 1
   35451    34217    34218 1
   35452    34217    34285 1
   35453    34217    34286 1
   35454    34218    34287 1
   35455    34218    34288 1
   35456    34218    34289 1
   35457    34219    34220 1
   35458    34219    34290 1
   35459    34219    34291 1
   35460    34220    34221 1
   35461    34220    34292 1
   35462    34220    34293 1
   35463    34221    34222 1
   35464    34221    34294 1
   35465    34221    34295 1
   35466    34222    34223 1
   35467    34222    34296 1
   35468    34222    34297 1
   35469    34223    34224 1
   35470    34223    34298 1
   35471    34223    34299 1
   35472    34224    34225 1
   35473    34224    34300 1
   35474    34224    34301 1
   35475    34225    34226 1
   35476    34225    34302 1
   35477    34225    34303 1
   35478    34226    34227 1
   35479    34226    34304 1
   35480    34226    34305 1
   35481    34227    34228 1
   35482    34227    34306 1
   35483    34227    34307 1
   35484    34228    34308 1
   35485    34228    34309 1
   35486    34228    34310 1
   35487    34311    34312 1
   35488    34311    34318 1
   35489    34311    34354 1
   35490    34312    34313 1
   35491    34312    34316 1
   35492    34313    34314 1
   35493    34313    34317 1
   35494    34314    34315 1
   35495    34315    34316 1
   35496    34315    34326 1
   35497    34316    34322 1
   35498    34317    34318 1
   35499    34317    34321 1
   35500    34318    34319 1
   35501    34319    34320 1
   35502    34319    34323 1
   35503    34320    34321 1
   35504    34324    34325 1
   35505    34324    34332 1
   35506    34325    34326 1
   35507    34325    34333 1
   35508    34326    34327 1
   35509    34327    34328 1
   35510    34327    34331 1
   35511    34328    34329 1
   35512    34329    34330 1
   35513    34330    34331 1
   35514    34331    34332 1
   35515    34332    34466 1
   35516    34334    34335 1
   35517    34334    34375 1
   35518    34334    34376 1
   35519    34334    34377 1
   35520    34335    34336 1
   35521    34335    34378 1
   35522    34335    34379 1
   35523    34336    34337 1
   35524    34336    34380 1
   35525    34336    34381 1
   35526    34337    34338 1
   35527    34337    34382 1
   35528    34337    34383 1
   35529    34338    34339 1
   35530    34338    34384 1
   35531    34338    34385 1
   35532    34339    34340 1
   35533    34339    34386 1
   35534    34339    34387 1
   35535    34340    34341 1
   35536    34340    34388 1
   35537    34340    34389 1
   35538    34341    34342 1
   35539    34341    34390 1
   35540    34341    34391 1
   35541    34342    34343 1
   35542    34342    34392 1
   35543    34342    34393 1
   35544    34343    34344 1
   35545    34343    34394 1
   35546    34343    34395 1
   35547    34344    34345 1
   35548    34344    34353 1
   35549    34344    34396 1
   35550    34345    34346 1
   35551    34345    34397 1
   35552    34345    34398 1
   35553    34346    34347 1
   35554    34346    34399 1
   35555    34346    34400 1
   35556    34347    34348 1
   35557    34347    34401 1
   35558    34347    34402 1
   35559    34348    34349 1
   35560    34348    34403 1
   35561    34348    34404 1
   35562    34349    34350 1
   35563    34349    34405 1
   35564    34349    34406 1
   35565    34350    34351 1
   35566    34350    34407 1
   35567    34350    34408 1
   35568    34351    34352 1
   35569    34351    34409 1
   35570    34351    34410 1
   35571    34352    34411 1
   35572    34352    34412 1
   35573    34352    34413 1
   35574    34353    34354 1
   35575    34353    34414 1
   35576    34353    34415 1
   35577    34354    34355 1
   35578    34355    34356 1
   35579    34355    34416 1
   35580    34355    34417 1
   35581    34356    34357 1
   35582    34356    34365 1
   35583    34356    34418 1
   35584    34357    34358 1
   35585    34357    34419 1
   35586    34357    34420 1
   35587    34358    34359 1
   35588    34358    34421 1
   35589    34358    34422 1
   35590    34359    34360 1
   35591    34359    34423 1
   35592    34359    34424 1
   35593    34360    34361 1
   35594    34360    34425 1
   35595    34360    34426 1
   35596    34361    34362 1
   35597    34361    34427 1
   35598    34361    34428 1
   35599    34362    34363 1
   35600    34362    34429 1
   35601    34362    34430 1
   35602    34363    34364 1
   35603    34363    34431 1
   35604    34363    34432 1
   35605    34364    34433 1
   35606    34364    34434 1
   35607    34364    34435 1
   35608    34365    34366 1
   35609    34365    34436 1
   35610    34365    34437 1
   35611    34366    34367 1
   35612    34366    34438 1
   35613    34366    34439 1
   35614    34367    34368 1
   35615    34367    34440 1
   35616    34367    34441 1
   35617    34368    34369 1
   35618    34368    34442 1
   35619    34368    34443 1
   35620    34369    34370 1
   35621    34369    34444 1
   35622    34369    34445 1
   35623    34370    34371 1
   35624    34370    34446 1
   35625    34370    34447 1
   35626    34371    34372 1
   35627    34371    34448 1
   35628    34371    34449 1
   35629    34372    34373 1
   35630    34372    34450 1
   35631    34372    34451 1
   35632    34373    34374 1
   35633    34373    34452 1
   35634    34373    34453 1
   35635    34374    34454 1
   35636    34374    34455 1
   35637    34374    34456 1
   35638    34457    34458 1
   35639    34457    34464 1
   35640    34457    34500 1
   35641    34458    34459 1
   35642    34458    34462 1
   35643    34459    34460 1
   35644    34459    34463 1
   35645    34460    34461 1
   35646    34461    34462 1
   35647    34461    34472 1
   35648    34462    34468 1
   35649    34463    34464 1
   35650    34463    34467 1
   35651    34464    34465 1
   35652    34465    34466 1
   35653    34465    34469 1
   35654    34466    34467 1
   35655    34470    34471 1
   35656    34470    34478 1
   35657    34471    34472 1
   35658    34471    34479 1
   35659    34472    34473 1
   35660    34473    34474 1
   35661    34473    34477 1
   35662    34474    34475 1
   35663    34475    34476 1
   35664    34476    34477 1
   35665    34477    34478 1
   35666    34478    34612 1
   35667    34480    34481 1
   35668    34480    34521 1
   35669    34480    34522 1
   35670    34480    34523 1
   35671    34481    34482 1
   35672    34481    34524 1
   35673    34481    34525 1
   35674    34482    34483 1
   35675    34482    34526 1
   35676    34482    34527 1
   35677    34483    34484 1
   35678    34483    34528 1
   35679    34483    34529 1
   35680    34484    34485 1
   35681    34484    34530 1
   35682    34484    34531 1
   35683    34485    34486 1
   35684    34485    34532 1
   35685    34485    34533 1
   35686    34486    34487 1
   35687    34486    34534 1
   35688    34486    34535 1
   35689    34487    34488 1
   35690    34487    34536 1
   35691    34487    34537 1
   35692    34488    34489 1
   35693    34488    34538 1
   35694    34488    34539 1
   35695    34489    34490 1
   35696    34489    34540 1
   35697    34489    34541 1
   35698    34490    34491 1
   35699    34490    34499 1
   35700    34490    34542 1
   35701    34491    34492 1
   35702    34491    34543 1
   35703    34491    34544 1
   35704    34492    34493 1
   35705    34492    34545 1
   35706    34492    34546 1
   35707    34493    34494 1
   35708    34493    34547 1
   35709    34493    34548 1
   35710    34494    34495 1
   35711    34494    34549 1
   35712    34494    34550 1
   35713    34495    34496 1
   35714    34495    34551 1
   35715    34495    34552 1
   35716    34496    34497 1
   35717    34496    34553 1
   35718    34496    34554 1
   35719    34497    34498 1
   35720    34497    34555 1
   35721    34497    34556 1
   35722    34498    34557 1
   35723    34498    34558 1
   35724    34498    34559 1
   35725    34499    34500 1
   35726    34499    34560 1
   35727    34499    34561 1
   35728    34500    34501 1
   35729    34501    34502 1
   35730    34501    34562 1
   35731    34501    34563 1
   35732    34502    34503 1
   35733    34502    34511 1
   35734    34502    34564 1
   35735    34503    34504 1
   35736    34503    34565 1
   35737    34503    34566 1
   35738    34504    34505 1
   35739    34504    34567 1
   35740    34504    34568 1
   35741    34505    34506 1
   35742    34505    34569 1
   35743    34505    34570 1
   35744    34506    34507 1
   35745    34506    34571 1
   35746    34506    34572 1
   35747    34507    34508 1
   35748    34507    34573 1
   35749    34507    34574 1
   35750    34508    34509 1
   35751    34508    34575 1
   35752    34508    34576 1
   35753    34509    34510 1
   35754    34509    34577 1
   35755    34509    34578 1
   35756    34510    34579 1
   35757    34510    34580 1
   35758    34510    34581 1
   35759    34511    34512 1
   35760    34511    34582 1
   35761    34511    34583 1
   35762    34512    34513 1
   35763    34512    34584 1
   35764    34512    34585 1
   35765    34513    34514 1
   35766    34513    34586 1
   35767    34513    34587 1
   35768    34514    34515 1
   35769    34514    34588 1
   35770    34514    34589 1
   35771    34515    34516 1
   35772    34515    34590 1
   35773    34515    34591 1
   35774    34516    34517 1
   35775    34516    34592 1
   35776    34516    34593 1
   35777    34517    34518 1
   35778    34517    34594 1
   35779    34517    34595 1
   35780    34518    34519 1
   35781    34518    34596 1
   35782    34518    34597 1
   35783    34519    34520 1
   35784    34519    34598 1
   35785    34519    34599 1
   35786    34520    34600 1
   35787    34520    34601 1
   35788    34520    34602 1
   35789    34603    34604 1
   35790    34603    34610 1
   35791    34603    34646 1
   35792    34604    34605 1
   35793    34604    34608 1
   35794    34605    34606 1
   35795    34605    34609 1
   35796    34606    34607 1
   35797    34607    34608 1
   35798    34607    34618 1
   35799    34608    34614 1
   35800    34609    34610 1
   35801    34609    34613 1
   35802    34610    34611 1
   35803    34611    34612 1
   35804    34611    34615 1
   35805    34612    34613 1
   35806    34616    34617 1
   35807    34616    34624 1
   35808    34617    34618 1
   35809    34617    34625 1
   35810    34618    34619 1
   35811    34619    34620 1
   35812    34619    34623 1
   35813    34620    34621 1
   35814    34621    34622 1
   35815    34622    34623 1
   35816    34623    34624 1
   35817    34624    34758 1
   35818    34626    34627 1
   35819    34626    34667 1
   35820    34626    34668 1
   35821    34626    34669 1
   35822    34627    34628 1
   35823    34627    34670 1
   35824    34627    34671 1
   35825    34628    34629 1
   35826    34628    34672 1
   35827    34628    34673 1
   35828    34629    34630 1
   35829    34629    34674 1
   35830    34629    34675 1
   35831    34630    34631 1
   35832    34630    34676 1
   35833    34630    34677 1
   35834    34631    34632 1
   35835    34631    34678 1
   35836    34631    34679 1
   35837    34632    34633 1
   35838    34632    34680 1
   35839    34632    34681 1
   35840    34633    34634 1
   35841    34633    34682 1
   35842    34633    34683 1
   35843    34634    34635 1
   35844    34634    34684 1
   35845    34634    34685 1
   35846    34635    34636 1
   35847    34635    34686 1
   35848    34635    34687 1
   35849    34636    34637 1
   35850    34636    34645 1
   35851    34636    34688 1
   35852    34637    34638 1
   35853    34637    34689 1
   35854    34637    34690 1
   35855    34638    34639 1
   35856    34638    34691 1
   35857    34638    34692 1
   35858    34639    34640 1
   35859    34639    34693 1
   35860    34639    34694 1
   35861    34640    34641 1
   35862    34640    34695 1
   35863    34640    34696 1
   35864    34641    34642 1
   35865    34641    34697 1
   35866    34641    34698 1
   35867    34642    34643 1
   35868    34642    34699 1
   35869    34642    34700 1
   35870    34643    34644 1
   35871    34643    34701 1
   35872    34643    34702 1
   35873    34644    34703 1
   35874    34644    34704 1
   35875    34644    34705 1
   35876    34645    34646 1
   35877    34645    34706 1
   35878    34645    34707 1
   35879    34646    34647 1
   35880    34647    34648 1
   35881    34647    34708 1
   35882    34647    34709 1
   35883    34648    34649 1
   35884    34648    34657 1
   35885    34648    34710 1
   35886    34649    34650 1
   35887    34649    34711 1
   35888    34649    34712 1
   35889    34650    34651 1
   35890    34650    34713 1
   35891    34650    34714 1
   35892    34651    34652 1
   35893    34651    34715 1
   35894    34651    34716 1
   35895    34652    34653 1
   35896    34652    34717 1
   35897    34652    34718 1
   35898    34653    34654 1
   35899    34653    34719 1
   35900    34653    34720 1
   35901    34654    34655 1
   35902    34654    34721 1
   35903    34654    34722 1
   35904    34655    34656 1
   35905    34655    34723 1
   35906    34655    34724 1
   35907    34656    34725 1
   35908    34656    34726 1
   35909    34656    34727 1
   35910    34657    34658 1
   35911    34657    34728 1
   35912    34657    34729 1
   35913    34658    34659 1
   35914    34658    34730 1
   35915    34658    34731 1
   35916    34659    34660 1
   35917    34659    34732 1
   35918    34659    34733 1
   35919    34660    34661 1
   35920    34660    34734 1
   35921    34660    34735 1
   35922    34661    34662 1
   35923    34661    34736 1
   35924    34661    34737 1
   35925    34662    34663 1
   35926    34662    34738 1
   35927    34662    34739 1
   35928    34663    34664 1
   35929    34663    34740 1
   35930    34663    34741 1
   35931    34664    34665 1
   35932    34664    34742 1
   35933    34664    34743 1
   35934    34665    34666 1
   35935    34665    34744 1
   35936    34665    34745 1
   35937    34666    34746 1
   35938    34666    34747 1
   35939    34666    34748 1
   35940    34749    34750 1
   35941    34749    34756 1
   35942    34749    34792 1
   35943    34750    34751 1
   35944    34750    34754 1
   35945    34751    34752 1
   35946    34751    34755 1
   35947    34752    34753 1
   35948    34753    34754 1
   35949    34753    34764 1
   35950    34754    34760 1
   35951    34755    34756 1
   35952    34755    34759 1
   35953    34756    34757 1
   35954    34757    34758 1
   35955    34757    34761 1
   35956    34758    34759 1
   35957    34762    34763 1
   35958    34762    34770 1
   35959    34763    34764 1
   35960    34763    34771 1
   35961    34764    34765 1
   35962    34765    34766 1
   35963    34765    34769 1
   35964    34766    34767 1
   35965    34767    34768 1
   35966    34768    34769 1
   35967    34769    34770 1
   35968    34770    34904 1
   35969    34772    34773 1
   35970    34772    34813 1
   35971    34772    34814 1
   35972    34772    34815 1
   35973    34773    34774 1
   35974    34773    34816 1
   35975    34773    34817 1
   35976    34774    34775 1
   35977    34774    34818 1
   35978    34774    34819 1
   35979    34775    34776 1
   35980    34775    34820 1
   35981    34775    34821 1
   35982    34776    34777 1
   35983    34776    34822 1
   35984    34776    34823 1
   35985    34777    34778 1
   35986    34777    34824 1
   35987    34777    34825 1
   35988    34778    34779 1
   35989    34778    34826 1
   35990    34778    34827 1
   35991    34779    34780 1
   35992    34779    34828 1
   35993    34779    34829 1
   35994    34780    34781 1
   35995    34780    34830 1
   35996    34780    34831 1
   35997    34781    34782 1
   35998    34781    34832 1
   35999    34781    34833 1
   36000    34782    34783 1
   36001    34782    34791 1
   36002    34782    34834 1
   36003    34783    34784 1
   36004    34783    34835 1
   36005    34783    34836 1
   36006    34784    34785 1
   36007    34784    34837 1
   36008    34784    34838 1
   36009    34785    34786 1
   36010    34785    34839 1
   36011    34785    34840 1
   36012    34786    34787 1
   36013    34786    34841 1
   36014    34786    34842 1
   36015    34787    34788 1
   36016    34787    34843 1
   36017    34787    34844 1
   36018    34788    34789 1
   36019    34788    34845 1
   36020    34788    34846 1
   36021    34789    34790 1
   36022    34789    34847 1
   36023    34789    34848 1
   36024    34790    34849 1
   36025    34790    34850 1
   36026    34790    34851 1
   36027    34791    34792 1
   36028    34791    34852 1
   36029    34791    34853 1
   36030    34792    34793 1
   36031    34793    34794 1
   36032    34793    34854 1
   36033    34793    34855 1
   36034    34794    34795 1
   36035    34794    34803 1
   36036    34794    34856 1
   36037    34795    34796 1
   36038    34795    34857 1
   36039    34795    34858 1
   36040    34796    34797 1
   36041    34796    34859 1
   36042    34796    34860 1
   36043    34797    34798 1
   36044    34797    34861 1
   36045    34797    34862 1
   36046    34798    34799 1
   36047    34798    34863 1
   36048    34798    34864 1
   36049    34799    34800 1
   36050    34799    34865 1
   36051    34799    34866 1
   36052    34800    34801 1
   36053    34800    34867 1
   36054    34800    34868 1
   36055    34801    34802 1
   36056    34801    34869 1
   36057    34801    34870 1
   36058    34802    34871 1
   36059    34802    34872 1
   36060    34802    34873 1
   36061    34803    34804 1
   36062    34803    34874 1
   36063    34803    34875 1
   36064    34804    34805 1
   36065    34804    34876 1
   36066    34804    34877 1
   36067    34805    34806 1
   36068    34805    34878 1
   36069    34805    34879 1
   36070    34806    34807 1
   36071    34806    34880 1
   36072    34806    34881 1
   36073    34807    34808 1
   36074    34807    34882 1
   36075    34807    34883 1
   36076    34808    34809 1
   36077    34808    34884 1
   36078    34808    34885 1
   36079    34809    34810 1
   36080    34809    34886 1
   36081    34809    34887 1
   36082    34810    34811 1
   36083    34810    34888 1
   36084    34810    34889 1
   36085    34811    34812 1
   36086    34811    34890 1
   36087    34811    34891 1
   36088    34812    34892 1
   36089    34812    34893 1
   36090    34812    34894 1
   36091    34895    34896 1
   36092    34895    34902 1
   36093    34895    34938 1
   36094    34896    34897 1
   36095    34896    34900 1
   36096    34897    34898 1
   36097    34897    34901 1
   36098    34898    34899 1
   36099    34899    34900 1
   36100    34899    34910 1
   36101    34900    34906 1
   36102    34901    34902 1
   36103    34901    34905 1
   36104    34902    34903 1
   36105    34903    34904 1
   36106    34903    34907 1
   36107    34904    34905 1
   36108    34908    34909 1
   36109    34908    34916 1
   36110    34909    34910 1
   36111    34909    34917 1
   36112    34910    34911 1
   36113    34911    34912 1
   36114    34911    34915 1
   36115    34912    34913 1
   36116    34913    34914 1
   36117    34914    34915 1
   36118    34915    34916 1
   36119    34916    35050 1
   36120    34918    34919 1
   36121    34918    34959 1
   36122    34918    34960 1
   36123    34918    34961 1
   36124    34919    34920 1
   36125    34919    34962 1
   36126    34919    34963 1
   36127    34920    34921 1
   36128    34920    34964 1
   36129    34920    34965 1
   36130    34921    34922 1
   36131    34921    34966 1
   36132    34921    34967 1
   36133    34922    34923 1
   36134    34922    34968 1
   36135    34922    34969 1
   36136    34923    34924 1
   36137    34923    34970 1
   36138    34923    34971 1
   36139    34924    34925 1
   36140    34924    34972 1
   36141    34924    34973 1
   36142    34925    34926 1
   36143    34925    34974 1
   36144    34925    34975 1
   36145    34926    34927 1
   36146    34926    34976 1
   36147    34926    34977 1
   36148    34927    34928 1
   36149    34927    34978 1
   36150    34927    34979 1
   36151    34928    34929 1
   36152    34928    34937 1
   36153    34928    34980 1
   36154    34929    34930 1
   36155    34929    34981 1
   36156    34929    34982 1
   36157    34930    34931 1
   36158    34930    34983 1
   36159    34930    34984 1
   36160    34931    34932 1
   36161    34931    34985 1
   36162    34931    34986 1
   36163    34932    34933 1
   36164    34932    34987 1
   36165    34932    34988 1
   36166    34933    34934 1
   36167    34933    34989 1
   36168    34933    34990 1
   36169    34934    34935 1
   36170    34934    34991 1
   36171    34934    34992 1
   36172    34935    34936 1
   36173    34935    34993 1
   36174    34935    34994 1
   36175    34936    34995 1
   36176    34936    34996 1
   36177    34936    34997 1
   36178    34937    34938 1
   36179    34937    34998 1
   36180    34937    34999 1
   36181    34938    34939 1
   36182    34939    34940 1
   36183    34939    35000 1
   36184    34939    35001 1
   36185    34940    34941 1
   36186    34940    34949 1
   36187    34940    35002 1
   36188    34941    34942 1
   36189    34941    35003 1
   36190    34941    35004 1
   36191    34942    34943 1
   36192    34942    35005 1
   36193    34942    35006 1
   36194    34943    34944 1
   36195    34943    35007 1
   36196    34943    35008 1
   36197    34944    34945 1
   36198    34944    35009 1
   36199    34944    35010 1
   36200    34945    34946 1
   36201    34945    35011 1
   36202    34945    35012 1
   36203    34946    34947 1
   36204    34946    35013 1
   36205    34946    35014 1
   36206    34947    34948 1
   36207    34947    35015 1
   36208    34947    35016 1
   36209    34948    35017 1
   36210    34948    35018 1
   36211    34948    35019 1
   36212    34949    34950 1
   36213    34949    35020 1
   36214    34949    35021 1
   36215    34950    34951 1
   36216    34950    35022 1
   36217    34950    35023 1
   36218    34951    34952 1
   36219    34951    35024 1
   36220    34951    35025 1
   36221    34952    34953 1
   36222    34952    35026 1
   36223    34952    35027 1
   36224    34953    34954 1
   36225    34953    35028 1
   36226    34953    35029 1
   36227    34954    34955 1
   36228    34954    35030 1
   36229    34954    35031 1
   36230    34955    34956 1
   36231    34955    35032 1
   36232    34955    35033 1
   36233    34956    34957 1
   36234    34956    35034 1
   36235    34956    35035 1
   36236    34957    34958 1
   36237    34957    35036 1
   36238    34957    35037 1
   36239    34958    35038 1
   36240    34958    35039 1
   36241    34958    35040 1
   36242    35041    35042 1
   36243    35041    35048 1
   36244    35041    35084 1
   36245    35042    35043 1
   36246    35042    35046 1
   36247    35043    35044 1
   36248    35043    35047 1
   36249    35044    35045 1
   36250    35045    35046 1
   36251    35045    35056 1
   36252    35046    35052 1
   36253    35047    35048 1
   36254    35047    35051 1
   36255    35048    35049 1
   36256    35049    35050 1
   36257    35049    35053 1
   36258    35050    35051 1
   36259    35054    35055 1
   36260    35054    35062 1
   36261    35055    35056 1
   36262    35055    35063 1
   36263    35056    35057 1
   36264    35057    35058 1
   36265    35057    35061 1
   36266    35058    35059 1
   36267    35059    35060 1
   36268    35060    35061 1
   36269    35061    35062 1
   36270    35062    35196 1
   36271    35064    35065 1
   36272    35064    35105 1
   36273    35064    35106 1
   36274    35064    35107 1
   36275    35065    35066 1
   36276    35065    35108 1
   36277    35065    35109 1
   36278    35066    35067 1
   36279    35066    35110 1
   36280    35066    35111 1
   36281    35067    35068 1
   36282    35067    35112 1
   36283    35067    35113 1
   36284    35068    35069 1
   36285    35068    35114 1
   36286    35068    35115 1
   36287    35069    35070 1
   36288    35069    35116 1
   36289    35069    35117 1
   36290    35070    35071 1
   36291    35070    35118 1
   36292    35070    35119 1
   36293    35071    35072 1
   36294    35071    35120 1
   36295    35071    35121 1
   36296    35072    35073 1
   36297    35072    35122 1
   36298    35072    35123 1
   36299    35073    35074 1
   36300    35073    35124 1
   36301    35073    35125 1
   36302    35074    35075 1
   36303    35074    35083 1
   36304    35074    35126 1
   36305    35075    35076 1
   36306    35075    35127 1
   36307    35075    35128 1
   36308    35076    35077 1
   36309    35076    35129 1
   36310    35076    35130 1
   36311    35077    35078 1
   36312    35077    35131 1
   36313    35077    35132 1
   36314    35078    35079 1
   36315    35078    35133 1
   36316    35078    35134 1
   36317    35079    35080 1
   36318    35079    35135 1
   36319    35079    35136 1
   36320    35080    35081 1
   36321    35080    35137 1
   36322    35080    35138 1
   36323    35081    35082 1
   36324    35081    35139 1
   36325    35081    35140 1
   36326    35082    35141 1
   36327    35082    35142 1
   36328    35082    35143 1
   36329    35083    35084 1
   36330    35083    35144 1
   36331    35083    35145 1
   36332    35084    35085 1
   36333    35085    35086 1
   36334    35085    35146 1
   36335    35085    35147 1
   36336    35086    35087 1
   36337    35086    35095 1
   36338    35086    35148 1
   36339    35087    35088 1
   36340    35087    35149 1
   36341    35087    35150 1
   36342    35088    35089 1
   36343    35088    35151 1
   36344    35088    35152 1
   36345    35089    35090 1
   36346    35089    35153 1
   36347    35089    35154 1
   36348    35090    35091 1
   36349    35090    35155 1
   36350    35090    35156 1
   36351    35091    35092 1
   36352    35091    35157 1
   36353    35091    35158 1
   36354    35092    35093 1
   36355    35092    35159 1
   36356    35092    35160 1
   36357    35093    35094 1
   36358    35093    35161 1
   36359    35093    35162 1
   36360    35094    35163 1
   36361    35094    35164 1
   36362    35094    35165 1
   36363    35095    35096 1
   36364    35095    35166 1
   36365    35095    35167 1
   36366    35096    35097 1
   36367    35096    35168 1
   36368    35096    35169 1
   36369    35097    35098 1
   36370    35097    35170 1
   36371    35097    35171 1
   36372    35098    35099 1
   36373    35098    35172 1
   36374    35098    35173 1
   36375    35099    35100 1
   36376    35099    35174 1
   36377    35099    35175 1
   36378    35100    35101 1
   36379    35100    35176 1
   36380    35100    35177 1
   36381    35101    35102 1
   36382    35101    35178 1
   36383    35101    35179 1
   36384    35102    35103 1
   36385    35102    35180 1
   36386    35102    35181 1
   36387    35103    35104 1
   36388    35103    35182 1
   36389    35103    35183 1
   36390    35104    35184 1
   36391    35104    35185 1
   36392    35104    35186 1
   36393    35187    35188 1
   36394    35187    35194 1
   36395    35187    35230 1
   36396    35188    35189 1
   36397    35188    35192 1
   36398    35189    35190 1
   36399    35189    35193 1
   36400    35190    35191 1
   36401    35191    35192 1
   36402    35191    35202 1
   36403    35192    35198 1
   36404    35193    35194 1
   36405    35193    35197 1
   36406    35194    35195 1
   36407    35195    35196 1
   36408    35195    35199 1
   36409    35196    35197 1
   36410    35200    35201 1
   36411    35200    35208 1
   36412    35201    35202 1
   36413    35201    35209 1
   36414    35202    35203 1
   36415    35203    35204 1
   36416    35203    35207 1
   36417    35204    35205 1
   36418    35205    35206 1
   36419    35206    35207 1
   36420    35207    35208 1
   36421    35208    35342 1
   36422    35210    35211 1
   36423    35210    35251 1
   36424    35210    35252 1
   36425    35210    35253 1
   36426    35211    35212 1
   36427    35211    35254 1
   36428    35211    35255 1
   36429    35212    35213 1
   36430    35212    35256 1
   36431    35212    35257 1
   36432    35213    35214 1
   36433    35213    35258 1
   36434    35213    35259 1
   36435    35214    35215 1
   36436    35214    35260 1
   36437    35214    35261 1
   36438    35215    35216 1
   36439    35215    35262 1
   36440    35215    35263 1
   36441    35216    35217 1
   36442    35216    35264 1
   36443    35216    35265 1
   36444    35217    35218 1
   36445    35217    35266 1
   36446    35217    35267 1
   36447    35218    35219 1
   36448    35218    35268 1
   36449    35218    35269 1
   36450    35219    35220 1
   36451    35219    35270 1
   36452    35219    35271 1
   36453    35220    35221 1
   36454    35220    35229 1
   36455    35220    35272 1
   36456    35221    35222 1
   36457    35221    35273 1
   36458    35221    35274 1
   36459    35222    35223 1
   36460    35222    35275 1
   36461    35222    35276 1
   36462    35223    35224 1
   36463    35223    35277 1
   36464    35223    35278 1
   36465    35224    35225 1
   36466    35224    35279 1
   36467    35224    35280 1
   36468    35225    35226 1
   36469    35225    35281 1
   36470    35225    35282 1
   36471    35226    35227 1
   36472    35226    35283 1
   36473    35226    35284 1
   36474    35227    35228 1
   36475    35227    35285 1
   36476    35227    35286 1
   36477    35228    35287 1
   36478    35228    35288 1
   36479    35228    35289 1
   36480    35229    35230 1
   36481    35229    35290 1
   36482    35229    35291 1
   36483    35230    35231 1
   36484    35231    35232 1
   36485    35231    35292 1
   36486    35231    35293 1
   36487    35232    35233 1
   36488    35232    35241 1
   36489    35232    35294 1
   36490    35233    35234 1
   36491    35233    35295 1
   36492    35233    35296 1
   36493    35234    35235 1
   36494    35234    35297 1
   36495    35234    35298 1
   36496    35235    35236 1
   36497    35235    35299 1
   36498    35235    35300 1
   36499    35236    35237 1
   36500    35236    35301 1
   36501    35236    35302 1
   36502    35237    35238 1
   36503    35237    35303 1
   36504    35237    35304 1
   36505    35238    35239 1
   36506    35238    35305 1
   36507    35238    35306 1
   36508    35239    35240 1
   36509    35239    35307 1
   36510    35239    35308 1
   36511    35240    35309 1
   36512    35240    35310 1
   36513    35240    35311 1
   36514    35241    35242 1
   36515    35241    35312 1
   36516    35241    35313 1
   36517    35242    35243 1
   36518    35242    35314 1
   36519    35242    35315 1
   36520    35243    35244 1
   36521    35243    35316 1
   36522    35243    35317 1
   36523    35244    35245 1
   36524    35244    35318 1
   36525    35244    35319 1
   36526    35245    35246 1
   36527    35245    35320 1
   36528    35245    35321 1
   36529    35246    35247 1
   36530    35246    35322 1
   36531    35246    35323 1
   36532    35247    35248 1
   36533    35247    35324 1
   36534    35247    35325 1
   36535    35248    35249 1
   36536    35248    35326 1
   36537    35248    35327 1
   36538    35249    35250 1
   36539    35249    35328 1
   36540    35249    35329 1
   36541    35250    35330 1
   36542    35250    35331 1
   36543    35250    35332 1
   36544    35333    35334 1
   36545    35333    35340 1
   36546    35333    35376 1
   36547    35334    35335 1
   36548    35334    35338 1
   36549    35335    35336 1
   36550    35335    35339 1
   36551    35336    35337 1
   36552    35337    35338 1
   36553    35337    35348 1
   36554    35338    35344 1
   36555    35339    35340 1
   36556    35339    35343 1
   36557    35340    35341 1
   36558    35341    35342 1
   36559    35341    35345 1
   36560    35342    35343 1
   36561    35346    35347 1
   36562    35346    35354 1
   36563    35347    35348 1
   36564    35347    35355 1
   36565    35348    35349 1
   36566    35349    35350 1
   36567    35349    35353 1
   36568    35350    35351 1
   36569    35351    35352 1
   36570    35352    35353 1
   36571    35353    35354 1
   36572    35354    35488 1
   36573    35356    35357 1
   36574    35356    35397 1
   36575    35356    35398 1
   36576    35356    35399 1
   36577    35357    35358 1
   36578    35357    35400 1
   36579    35357    35401 1
   36580    35358    35359 1
   36581    35358    35402 1
   36582    35358    35403 1
   36583    35359    35360 1
   36584    35359    35404 1
   36585    35359    35405 1
   36586    35360    35361 1
   36587    35360    35406 1
   36588    35360    35407 1
   36589    35361    35362 1
   36590    35361    35408 1
   36591    35361    35409 1
   36592    35362    35363 1
   36593    35362    35410 1
   36594    35362    35411 1
   36595    35363    35364 1
   36596    35363    35412 1
   36597    35363    35413 1
   36598    35364    35365 1
   36599    35364    35414 1
   36600    35364    35415 1
   36601    35365    35366 1
   36602    35365    35416 1
   36603    35365    35417 1
   36604    35366    35367 1
   36605    35366    35375 1
   36606    35366    35418 1
   36607    35367    35368 1
   36608    35367    35419 1
   36609    35367    35420 1
   36610    35368    35369 1
   36611    35368    35421 1
   36612    35368    35422 1
   36613    35369    35370 1
   36614    35369    35423 1
   36615    35369    35424 1
   36616    35370    35371 1
   36617    35370    35425 1
   36618    35370    35426 1
   36619    35371    35372 1
   36620    35371    35427 1
   36621    35371    35428 1
   36622    35372    35373 1
   36623    35372    35429 1
   36624    35372    35430 1
   36625    35373    35374 1
   36626    35373    35431 1
   36627    35373    35432 1
   36628    35374    35433 1
   36629    35374    35434 1
   36630    35374    35435 1
   36631    35375    35376 1
   36632    35375    35436 1
   36633    35375    35437 1
   36634    35376    35377 1
   36635    35377    35378 1
   36636    35377    35438 1
   36637    35377    35439 1
   36638    35378    35379 1
   36639    35378    35387 1
   36640    35378    35440 1
   36641    35379    35380 1
   36642    35379    35441 1
   36643    35379    35442 1
   36644    35380    35381 1
   36645    35380    35443 1
   36646    35380    35444 1
   36647    35381    35382 1
   36648    35381    35445 1
   36649    35381    35446 1
   36650    35382    35383 1
   36651    35382    35447 1
   36652    35382    35448 1
   36653    35383    35384 1
   36654    35383    35449 1
   36655    35383    35450 1
   36656    35384    35385 1
   36657    35384    35451 1
   36658    35384    35452 1
   36659    35385    35386 1
   36660    35385    35453 1
   36661    35385    35454 1
   36662    35386    35455 1
   36663    35386    35456 1
   36664    35386    35457 1
   36665    35387    35388 1
   36666    35387    35458 1
   36667    35387    35459 1
   36668    35388    35389 1
   36669    35388    35460 1
   36670    35388    35461 1
   36671    35389    35390 1
   36672    35389    35462 1
   36673    35389    35463 1
   36674    35390    35391 1
   36675    35390    35464 1
   36676    35390    35465 1
   36677    35391    35392 1
   36678    35391    35466 1
   36679    35391    35467 1
   36680    35392    35393 1
   36681    35392    35468 1
   36682    35392    35469 1
   36683    35393    35394 1
   36684    35393    35470 1
   36685    35393    35471 1
   36686    35394    35395 1
   36687    35394    35472 1
   36688    35394    35473 1
   36689    35395    35396 1
   36690    35395    35474 1
   36691    35395    35475 1
   36692    35396    35476 1
   36693    35396    35477 1
   36694    35396    35478 1
   36695    35479    35480 1
   36696    35479    35486 1
   36697    35479    35522 1
   36698    35480    35481 1
   36699    35480    35484 1
   36700    35481    35482 1
   36701    35481    35485 1
   36702    35482    35483 1
   36703    35483    35484 1
   36704    35483    35494 1
   36705    35484    35490 1
   36706    35485    35486 1
   36707    35485    35489 1
   36708    35486    35487 1
   36709    35487    35488 1
   36710    35487    35491 1
   36711    35488    35489 1
   36712    35492    35493 1
   36713    35492    35500 1
   36714    35493    35494 1
   36715    35493    35501 1
   36716    35494    35495 1
   36717    35495    35496 1
   36718    35495    35499 1
   36719    35496    35497 1
   36720    35497    35498 1
   36721    35498    35499 1
   36722    35499    35500 1
   36723    35500    35634 1
   36724    35502    35503 1
   36725    35502    35543 1
   36726    35502    35544 1
   36727    35502    35545 1
   36728    35503    35504 1
   36729    35503    35546 1
   36730    35503    35547 1
   36731    35504    35505 1
   36732    35504    35548 1
   36733    35504    35549 1
   36734    35505    35506 1
   36735    35505    35550 1
   36736    35505    35551 1
   36737    35506    35507 1
   36738    35506    35552 1
   36739    35506    35553 1
   36740    35507    35508 1
   36741    35507    35554 1
   36742    35507    35555 1
   36743    35508    35509 1
   36744    35508    35556 1
   36745    35508    35557 1
   36746    35509    35510 1
   36747    35509    35558 1
   36748    35509    35559 1
   36749    35510    35511 1
   36750    35510    35560 1
   36751    35510    35561 1
   36752    35511    35512 1
   36753    35511    35562 1
   36754    35511    35563 1
   36755    35512    35513 1
   36756    35512    35521 1
   36757    35512    35564 1
   36758    35513    35514 1
   36759    35513    35565 1
   36760    35513    35566 1
   36761    35514    35515 1
   36762    35514    35567 1
   36763    35514    35568 1
   36764    35515    35516 1
   36765    35515    35569 1
   36766    35515    35570 1
   36767    35516    35517 1
   36768    35516    35571 1
   36769    35516    35572 1
   36770    35517    35518 1
   36771    35517    35573 1
   36772    35517    35574 1
   36773    35518    35519 1
   36774    35518    35575 1
   36775    35518    35576 1
   36776    35519    35520 1
   36777    35519    35577 1
   36778    35519    35578 1
   36779    35520    35579 1
   36780    35520    35580 1
   36781    35520    35581 1
   36782    35521    35522 1
   36783    35521    35582 1
   36784    35521    35583 1
   36785    35522    35523 1
   36786    35523    35524 1
   36787    35523    35584 1
   36788    35523    35585 1
   36789    35524    35525 1
   36790    35524    35533 1
   36791    35524    35586 1
   36792    35525    35526 1
   36793    35525    35587 1
   36794    35525    35588 1
   36795    35526    35527 1
   36796    35526    35589 1
   36797    35526    35590 1
   36798    35527    35528 1
   36799    35527    35591 1
   36800    35527    35592 1
   36801    35528    35529 1
   36802    35528    35593 1
   36803    35528    35594 1
   36804    35529    35530 1
   36805    35529    35595 1
   36806    35529    35596 1
   36807    35530    35531 1
   36808    35530    35597 1
   36809    35530    35598 1
   36810    35531    35532 1
   36811    35531    35599 1
   36812    35531    35600 1
   36813    35532    35601 1
   36814    35532    35602 1
   36815    35532    35603 1
   36816    35533    35534 1
   36817    35533    35604 1
   36818    35533    35605 1
   36819    35534    35535 1
   36820    35534    35606 1
   36821    35534    35607 1
   36822    35535    35536 1
   36823    35535    35608 1
   36824    35535    35609 1
   36825    35536    35537 1
   36826    35536    35610 1
   36827    35536    35611 1
   36828    35537    35538 1
   36829    35537    35612 1
   36830    35537    35613 1
   36831    35538    35539 1
   36832    35538    35614 1
   36833    35538    35615 1
   36834    35539    35540 1
   36835    35539    35616 1
   36836    35539    35617 1
   36837    35540    35541 1
   36838    35540    35618 1
   36839    35540    35619 1
   36840    35541    35542 1
   36841    35541    35620 1
   36842    35541    35621 1
   36843    35542    35622 1
   36844    35542    35623 1
   36845    35542    35624 1
   36846    35625    35626 1
   36847    35625    35632 1
   36848    35625    35668 1
   36849    35626    35627 1
   36850    35626    35630 1
   36851    35627    35628 1
   36852    35627    35631 1
   36853    35628    35629 1
   36854    35629    35630 1
   36855    35629    35640 1
   36856    35630    35636 1
   36857    35631    35632 1
   36858    35631    35635 1
   36859    35632    35633 1
   36860    35633    35634 1
   36861    35633    35637 1
   36862    35634    35635 1
   36863    35638    35639 1
   36864    35638    35646 1
   36865    35639    35640 1
   36866    35639    35647 1
   36867    35640    35641 1
   36868    35641    35642 1
   36869    35641    35645 1
   36870    35642    35643 1
   36871    35643    35644 1
   36872    35644    35645 1
   36873    35645    35646 1
   36874    35646    35780 1
   36875    35648    35649 1
   36876    35648    35689 1
   36877    35648    35690 1
   36878    35648    35691 1
   36879    35649    35650 1
   36880    35649    35692 1
   36881    35649    35693 1
   36882    35650    35651 1
   36883    35650    35694 1
   36884    35650    35695 1
   36885    35651    35652 1
   36886    35651    35696 1
   36887    35651    35697 1
   36888    35652    35653 1
   36889    35652    35698 1
   36890    35652    35699 1
   36891    35653    35654 1
   36892    35653    35700 1
   36893    35653    35701 1
   36894    35654    35655 1
   36895    35654    35702 1
   36896    35654    35703 1
   36897    35655    35656 1
   36898    35655    35704 1
   36899    35655    35705 1
   36900    35656    35657 1
   36901    35656    35706 1
   36902    35656    35707 1
   36903    35657    35658 1
   36904    35657    35708 1
   36905    35657    35709 1
   36906    35658    35659 1
   36907    35658    35667 1
   36908    35658    35710 1
   36909    35659    35660 1
   36910    35659    35711 1
   36911    35659    35712 1
   36912    35660    35661 1
   36913    35660    35713 1
   36914    35660    35714 1
   36915    35661    35662 1
   36916    35661    35715 1
   36917    35661    35716 1
   36918    35662    35663 1
   36919    35662    35717 1
   36920    35662    35718 1
   36921    35663    35664 1
   36922    35663    35719 1
   36923    35663    35720 1
   36924    35664    35665 1
   36925    35664    35721 1
   36926    35664    35722 1
   36927    35665    35666 1
   36928    35665    35723 1
   36929    35665    35724 1
   36930    35666    35725 1
   36931    35666    35726 1
   36932    35666    35727 1
   36933    35667    35668 1
   36934    35667    35728 1
   36935    35667    35729 1
   36936    35668    35669 1
   36937    35669    35670 1
   36938    35669    35730 1
   36939    35669    35731 1
   36940    35670    35671 1
   36941    35670    35679 1
   36942    35670    35732 1
   36943    35671    35672 1
   36944    35671    35733 1
   36945    35671    35734 1
   36946    35672    35673 1
   36947    35672    35735 1
   36948    35672    35736 1
   36949    35673    35674 1
   36950    35673    35737 1
   36951    35673    35738 1
   36952    35674    35675 1
   36953    35674    35739 1
   36954    35674    35740 1
   36955    35675    35676 1
   36956    35675    35741 1
   36957    35675    35742 1
   36958    35676    35677 1
   36959    35676    35743 1
   36960    35676    35744 1
   36961    35677    35678 1
   36962    35677    35745 1
   36963    35677    35746 1
   36964    35678    35747 1
   36965    35678    35748 1
   36966    35678    35749 1
   36967    35679    35680 1
   36968    35679    35750 1
   36969    35679    35751 1
   36970    35680    35681 1
   36971    35680    35752 1
   36972    35680    35753 1
   36973    35681    35682 1
   36974    35681    35754 1
   36975    35681    35755 1
   36976    35682    35683 1
   36977    35682    35756 1
   36978    35682    35757 1
   36979    35683    35684 1
   36980    35683    35758 1
   36981    35683    35759 1
   36982    35684    35685 1
   36983    35684    35760 1
   36984    35684    35761 1
   36985    35685    35686 1
   36986    35685    35762 1
   36987    35685    35763 1
   36988    35686    35687 1
   36989    35686    35764 1
   36990    35686    35765 1
   36991    35687    35688 1
   36992    35687    35766 1
   36993    35687    35767 1
   36994    35688    35768 1
   36995    35688    35769 1
   36996    35688    35770 1
   36997    35771    35772 1
   36998    35771    35778 1
   36999    35771    35814 1
   37000    35772    35773 1
   37001    35772    35776 1
   37002    35773    35774 1
   37003    35773    35777 1
   37004    35774    35775 1
   37005    35775    35776 1
   37006    35775    35786 1
   37007    35776    35782 1
   37008    35777    35778 1
   37009    35777    35781 1
   37010    35778    35779 1
   37011    35779    35780 1
   37012    35779    35783 1
   37013    35780    35781 1
   37014    35784    35785 1
   37015    35784    35792 1
   37016    35785    35786 1
   37017    35785    35793 1
   37018    35786    35787 1
   37019    35787    35788 1
   37020    35787    35791 1
   37021    35788    35789 1
   37022    35789    35790 1
   37023    35790    35791 1
   37024    35791    35792 1
   37025    35792    35926 1
   37026    35794    35795 1
   37027    35794    35835 1
   37028    35794    35836 1
   37029    35794    35837 1
   37030    35795    35796 1
   37031    35795    35838 1
   37032    35795    35839 1
   37033    35796    35797 1
   37034    35796    35840 1
   37035    35796    35841 1
   37036    35797    35798 1
   37037    35797    35842 1
   37038    35797    35843 1
   37039    35798    35799 1
   37040    35798    35844 1
   37041    35798    35845 1
   37042    35799    35800 1
   37043    35799    35846 1
   37044    35799    35847 1
   37045    35800    35801 1
   37046    35800    35848 1
   37047    35800    35849 1
   37048    35801    35802 1
   37049    35801    35850 1
   37050    35801    35851 1
   37051    35802    35803 1
   37052    35802    35852 1
   37053    35802    35853 1
   37054    35803    35804 1
   37055    35803    35854 1
   37056    35803    35855 1
   37057    35804    35805 1
   37058    35804    35813 1
   37059    35804    35856 1
   37060    35805    35806 1
   37061    35805    35857 1
   37062    35805    35858 1
   37063    35806    35807 1
   37064    35806    35859 1
   37065    35806    35860 1
   37066    35807    35808 1
   37067    35807    35861 1
   37068    35807    35862 1
   37069    35808    35809 1
   37070    35808    35863 1
   37071    35808    35864 1
   37072    35809    35810 1
   37073    35809    35865 1
   37074    35809    35866 1
   37075    35810    35811 1
   37076    35810    35867 1
   37077    35810    35868 1
   37078    35811    35812 1
   37079    35811    35869 1
   37080    35811    35870 1
   37081    35812    35871 1
   37082    35812    35872 1
   37083    35812    35873 1
   37084    35813    35814 1
   37085    35813    35874 1
   37086    35813    35875 1
   37087    35814    35815 1
   37088    35815    35816 1
   37089    35815    35876 1
   37090    35815    35877 1
   37091    35816    35817 1
   37092    35816    35825 1
   37093    35816    35878 1
   37094    35817    35818 1
   37095    35817    35879 1
   37096    35817    35880 1
   37097    35818    35819 1
   37098    35818    35881 1
   37099    35818    35882 1
   37100    35819    35820 1
   37101    35819    35883 1
   37102    35819    35884 1
   37103    35820    35821 1
   37104    35820    35885 1
   37105    35820    35886 1
   37106    35821    35822 1
   37107    35821    35887 1
   37108    35821    35888 1
   37109    35822    35823 1
   37110    35822    35889 1
   37111    35822    35890 1
   37112    35823    35824 1
   37113    35823    35891 1
   37114    35823    35892 1
   37115    35824    35893 1
   37116    35824    35894 1
   37117    35824    35895 1
   37118    35825    35826 1
   37119    35825    35896 1
   37120    35825    35897 1
   37121    35826    35827 1
   37122    35826    35898 1
   37123    35826    35899 1
   37124    35827    35828 1
   37125    35827    35900 1
   37126    35827    35901 1
   37127    35828    35829 1
   37128    35828    35902 1
   37129    35828    35903 1
   37130    35829    35830 1
   37131    35829    35904 1
   37132    35829    35905 1
   37133    35830    35831 1
   37134    35830    35906 1
   37135    35830    35907 1
   37136    35831    35832 1
   37137    35831    35908 1
   37138    35831    35909 1
   37139    35832    35833 1
   37140    35832    35910 1
   37141    35832    35911 1
   37142    35833    35834 1
   37143    35833    35912 1
   37144    35833    35913 1
   37145    35834    35914 1
   37146    35834    35915 1
   37147    35834    35916 1
   37148    35917    35918 1
   37149    35917    35924 1
   37150    35917    35960 1
   37151    35918    35919 1
   37152    35918    35922 1
   37153    35919    35920 1
   37154    35919    35923 1
   37155    35920    35921 1
   37156    35921    35922 1
   37157    35921    35932 1
   37158    35922    35928 1
   37159    35923    35924 1
   37160    35923    35927 1
   37161    35924    35925 1
   37162    35925    35926 1
   37163    35925    35929 1
   37164    35926    35927 1
   37165    35930    35931 1
   37166    35930    35938 1
   37167    35931    35932 1
   37168    35931    35939 1
   37169    35932    35933 1
   37170    35933    35934 1
   37171    35933    35937 1
   37172    35934    35935 1
   37173    35935    35936 1
   37174    35936    35937 1
   37175    35937    35938 1
   37176    35938    36072 1
   37177    35940    35941 1
   37178    35940    35981 1
   37179    35940    35982 1
   37180    35940    35983 1
   37181    35941    35942 1
   37182    35941    35984 1
   37183    35941    35985 1
   37184    35942    35943 1
   37185    35942    35986 1
   37186    35942    35987 1
   37187    35943    35944 1
   37188    35943    35988 1
   37189    35943    35989 1
   37190    35944    35945 1
   37191    35944    35990 1
   37192    35944    35991 1
   37193    35945    35946 1
   37194    35945    35992 1
   37195    35945    35993 1
   37196    35946    35947 1
   37197    35946    35994 1
   37198    35946    35995 1
   37199    35947    35948 1
   37200    35947    35996 1
   37201    35947    35997 1
   37202    35948    35949 1
   37203    35948    35998 1
   37204    35948    35999 1
   37205    35949    35950 1
   37206    35949    36000 1
   37207    35949    36001 1
   37208    35950    35951 1
   37209    35950    35959 1
   37210    35950    36002 1
   37211    35951    35952 1
   37212    35951    36003 1
   37213    35951    36004 1
   37214    35952    35953 1
   37215    35952    36005 1
   37216    35952    36006 1
   37217    35953    35954 1
   37218    35953    36007 1
   37219    35953    36008 1
   37220    35954    35955 1
   37221    35954    36009 1
   37222    35954    36010 1
   37223    35955    35956 1
   37224    35955    36011 1
   37225    35955    36012 1
   37226    35956    35957 1
   37227    35956    36013 1
   37228    35956    36014 1
   37229    35957    35958 1
   37230    35957    36015 1
   37231    35957    36016 1
   37232    35958    36017 1
   37233    35958    36018 1
   37234    35958    36019 1
   37235    35959    35960 1
   37236    35959    36020 1
   37237    35959    36021 1
   37238    35960    35961 1
   37239    35961    35962 1
   37240    35961    36022 1
   37241    35961    36023 1
   37242    35962    35963 1
   37243    35962    35971 1
   37244    35962    36024 1
   37245    35963    35964 1
   37246    35963    36025 1
   37247    35963    36026 1
   37248    35964    35965 1
   37249    35964    36027 1
   37250    35964    36028 1
   37251    35965    35966 1
   37252    35965    36029 1
   37253    35965    36030 1
   37254    35966    35967 1
   37255    35966    36031 1
   37256    35966    36032 1
   37257    35967    35968 1
   37258    35967    36033 1
   37259    35967    36034 1
   37260    35968    35969 1
   37261    35968    36035 1
   37262    35968    36036 1
   37263    35969    35970 1
   37264    35969    36037 1
   37265    35969    36038 1
   37266    35970    36039 1
   37267    35970    36040 1
   37268    35970    36041 1
   37269    35971    35972 1
   37270    35971    36042 1
   37271    35971    36043 1
   37272    35972    35973 1
   37273    35972    36044 1
   37274    35972    36045 1
   37275    35973    35974 1
   37276    35973    36046 1
   37277    35973    36047 1
   37278    35974    35975 1
   37279    35974    36048 1
   37280    35974    36049 1
   37281    35975    35976 1
   37282    35975    36050 1
   37283    35975    36051 1
   37284    35976    35977 1
   37285    35976    36052 1
   37286    35976    36053 1
   37287    35977    35978 1
   37288    35977    36054 1
   37289    35977    36055 1
   37290    35978    35979 1
   37291    35978    36056 1
   37292    35978    36057 1
   37293    35979    35980 1
   37294    35979    36058 1
   37295    35979    36059 1
   37296    35980    36060 1
   37297    35980    36061 1
   37298    35980    36062 1
   37299    36063    36064 1
   37300    36063    36070 1
   37301    36063    36106 1
   37302    36064    36065 1
   37303    36064    36068 1
   37304    36065    36066 1
   37305    36065    36069 1
   37306    36066    36067 1
   37307    36067    36068 1
   37308    36067    36078 1
   37309    36068    36074 1
   37310    36069    36070 1
   37311    36069    36073 1
   37312    36070    36071 1
   37313    36071    36072 1
   37314    36071    36075 1
   37315    36072    36073 1
   37316    36076    36077 1
   37317    36076    36084 1
   37318    36077    36078 1
   37319    36077    36085 1
   37320    36078    36079 1
   37321    36079    36080 1
   37322    36079    36083 1
   37323    36080    36081 1
   37324    36081    36082 1
   37325    36082    36083 1
   37326    36083    36084 1
   37327    36084    36218 1
   37328    36086    36087 1
   37329    36086    36127 1
   37330    36086    36128 1
   37331    36086    36129 1
   37332    36087    36088 1
   37333    36087    36130 1
   37334    36087    36131 1
   37335    36088    36089 1
   37336    36088    36132 1
   37337    36088    36133 1
   37338    36089    36090 1
   37339    36089    36134 1
   37340    36089    36135 1
   37341    36090    36091 1
   37342    36090    36136 1
   37343    36090    36137 1
   37344    36091    36092 1
   37345    36091    36138 1
   37346    36091    36139 1
   37347    36092    36093 1
   37348    36092    36140 1
   37349    36092    36141 1
   37350    36093    36094 1
   37351    36093    36142 1
   37352    36093    36143 1
   37353    36094    36095 1
   37354    36094    36144 1
   37355    36094    36145 1
   37356    36095    36096 1
   37357    36095    36146 1
   37358    36095    36147 1
   37359    36096    36097 1
   37360    36096    36105 1
   37361    36096    36148 1
   37362    36097    36098 1
   37363    36097    36149 1
   37364    36097    36150 1
   37365    36098    36099 1
   37366    36098    36151 1
   37367    36098    36152 1
   37368    36099    36100 1
   37369    36099    36153 1
   37370    36099    36154 1
   37371    36100    36101 1
   37372    36100    36155 1
   37373    36100    36156 1
   37374    36101    36102 1
   37375    36101    36157 1
   37376    36101    36158 1
   37377    36102    36103 1
   37378    36102    36159 1
   37379    36102    36160 1
   37380    36103    36104 1
   37381    36103    36161 1
   37382    36103    36162 1
   37383    36104    36163 1
   37384    36104    36164 1
   37385    36104    36165 1
   37386    36105    36106 1
   37387    36105    36166 1
   37388    36105    36167 1
   37389    36106    36107 1
   37390    36107    36108 1
   37391    36107    36168 1
   37392    36107    36169 1
   37393    36108    36109 1
   37394    36108    36117 1
   37395    36108    36170 1
   37396    36109    36110 1
   37397    36109    36171 1
   37398    36109    36172 1
   37399    36110    36111 1
   37400    36110    36173 1
   37401    36110    36174 1
   37402    36111    36112 1
   37403    36111    36175 1
   37404    36111    36176 1
   37405    36112    36113 1
   37406    36112    36177 1
   37407    36112    36178 1
   37408    36113    36114 1
   37409    36113    36179 1
   37410    36113    36180 1
   37411    36114    36115 1
   37412    36114    36181 1
   37413    36114    36182 1
   37414    36115    36116 1
   37415    36115    36183 1
   37416    36115    36184 1
   37417    36116    36185 1
   37418    36116    36186 1
   37419    36116    36187 1
   37420    36117    36118 1
   37421    36117    36188 1
   37422    36117    36189 1
   37423    36118    36119 1
   37424    36118    36190 1
   37425    36118    36191 1
   37426    36119    36120 1
   37427    36119    36192 1
   37428    36119    36193 1
   37429    36120    36121 1
   37430    36120    36194 1
   37431    36120    36195 1
   37432    36121    36122 1
   37433    36121    36196 1
   37434    36121    36197 1
   37435    36122    36123 1
   37436    36122    36198 1
   37437    36122    36199 1
   37438    36123    36124 1
   37439    36123    36200 1
   37440    36123    36201 1
   37441    36124    36125 1
   37442    36124    36202 1
   37443    36124    36203 1
   37444    36125    36126 1
   37445    36125    36204 1
   37446    36125    36205 1
   37447    36126    36206 1
   37448    36126    36207 1
   37449    36126    36208 1
   37450    36209    36210 1
   37451    36209    36216 1
   37452    36209    36252 1
   37453    36210    36211 1
   37454    36210    36214 1
   37455    36211    36212 1
   37456    36211    36215 1
   37457    36212    36213 1
   37458    36213    36214 1
   37459    36213    36224 1
   37460    36214    36220 1
   37461    36215    36216 1
   37462    36215    36219 1
   37463    36216    36217 1
   37464    36217    36218 1
   37465    36217    36221 1
   37466    36218    36219 1
   37467    36222    36223 1
   37468    36222    36230 1
   37469    36223    36224 1
   37470    36223    36231 1
   37471    36224    36225 1
   37472    36225    36226 1
   37473    36225    36229 1
   37474    36226    36227 1
   37475    36227    36228 1
   37476    36228    36229 1
   37477    36229    36230 1
   37478    36230    36364 1
   37479    36232    36233 1
   37480    36232    36273 1
   37481    36232    36274 1
   37482    36232    36275 1
   37483    36233    36234 1
   37484    36233    36276 1
   37485    36233    36277 1
   37486    36234    36235 1
   37487    36234    36278 1
   37488    36234    36279 1
   37489    36235    36236 1
   37490    36235    36280 1
   37491    36235    36281 1
   37492    36236    36237 1
   37493    36236    36282 1
   37494    36236    36283 1
   37495    36237    36238 1
   37496    36237    36284 1
   37497    36237    36285 1
   37498    36238    36239 1
   37499    36238    36286 1
   37500    36238    36287 1
   37501    36239    36240 1
   37502    36239    36288 1
   37503    36239    36289 1
   37504    36240    36241 1
   37505    36240    36290 1
   37506    36240    36291 1
   37507    36241    36242 1
   37508    36241    36292 1
   37509    36241    36293 1
   37510    36242    36243 1
   37511    36242    36251 1
   37512    36242    36294 1
   37513    36243    36244 1
   37514    36243    36295 1
   37515    36243    36296 1
   37516    36244    36245 1
   37517    36244    36297 1
   37518    36244    36298 1
   37519    36245    36246 1
   37520    36245    36299 1
   37521    36245    36300 1
   37522    36246    36247 1
   37523    36246    36301 1
   37524    36246    36302 1
   37525    36247    36248 1
   37526    36247    36303 1
   37527    36247    36304 1
   37528    36248    36249 1
   37529    36248    36305 1
   37530    36248    36306 1
   37531    36249    36250 1
   37532    36249    36307 1
   37533    36249    36308 1
   37534    36250    36309 1
   37535    36250    36310 1
   37536    36250    36311 1
   37537    36251    36252 1
   37538    36251    36312 1
   37539    36251    36313 1
   37540    36252    36253 1
   37541    36253    36254 1
   37542    36253    36314 1
   37543    36253    36315 1
   37544    36254    36255 1
   37545    36254    36263 1
   37546    36254    36316 1
   37547    36255    36256 1
   37548    36255    36317 1
   37549    36255    36318 1
   37550    36256    36257 1
   37551    36256    36319 1
   37552    36256    36320 1
   37553    36257    36258 1
   37554    36257    36321 1
   37555    36257    36322 1
   37556    36258    36259 1
   37557    36258    36323 1
   37558    36258    36324 1
   37559    36259    36260 1
   37560    36259    36325 1
   37561    36259    36326 1
   37562    36260    36261 1
   37563    36260    36327 1
   37564    36260    36328 1
   37565    36261    36262 1
   37566    36261    36329 1
   37567    36261    36330 1
   37568    36262    36331 1
   37569    36262    36332 1
   37570    36262    36333 1
   37571    36263    36264 1
   37572    36263    36334 1
   37573    36263    36335 1
   37574    36264    36265 1
   37575    36264    36336 1
   37576    36264    36337 1
   37577    36265    36266 1
   37578    36265    36338 1
   37579    36265    36339 1
   37580    36266    36267 1
   37581    36266    36340 1
   37582    36266    36341 1
   37583    36267    36268 1
   37584    36267    36342 1
   37585    36267    36343 1
   37586    36268    36269 1
   37587    36268    36344 1
   37588    36268    36345 1
   37589    36269    36270 1
   37590    36269    36346 1
   37591    36269    36347 1
   37592    36270    36271 1
   37593    36270    36348 1
   37594    36270    36349 1
   37595    36271    36272 1
   37596    36271    36350 1
   37597    36271    36351 1
   37598    36272    36352 1
   37599    36272    36353 1
   37600    36272    36354 1
   37601    36355    36356 1
   37602    36355    36362 1
   37603    36355    36398 1
   37604    36356    36357 1
   37605    36356    36360 1
   37606    36357    36358 1
   37607    36357    36361 1
   37608    36358    36359 1
   37609    36359    36360 1
   37610    36359    36370 1
   37611    36360    36366 1
   37612    36361    36362 1
   37613    36361    36365 1
   37614    36362    36363 1
   37615    36363    36364 1
   37616    36363    36367 1
   37617    36364    36365 1
   37618    36368    36369 1
   37619    36368    36376 1
   37620    36369    36370 1
   37621    36369    36377 1
   37622    36370    36371 1
   37623    36371    36372 1
   37624    36371    36375 1
   37625    36372    36373 1
   37626    36373    36374 1
   37627    36374    36375 1
   37628    36375    36376 1
   37629    36376    36502 1
   37630    36378    36379 1
   37631    36378    36419 1
   37632    36378    36420 1
   37633    36378    36421 1
   37634    36379    36380 1
   37635    36379    36422 1
   37636    36379    36423 1
   37637    36380    36381 1
   37638    36380    36424 1
   37639    36380    36425 1
   37640    36381    36382 1
   37641    36381    36426 1
   37642    36381    36427 1
   37643    36382    36383 1
   37644    36382    36428 1
   37645    36382    36429 1
   37646    36383    36384 1
   37647    36383    36430 1
   37648    36383    36431 1
   37649    36384    36385 1
   37650    36384    36432 1
   37651    36384    36433 1
   37652    36385    36386 1
   37653    36385    36434 1
   37654    36385    36435 1
   37655    36386    36387 1
   37656    36386    36436 1
   37657    36386    36437 1
   37658    36387    36388 1
   37659    36387    36438 1
   37660    36387    36439 1
   37661    36388    36389 1
   37662    36388    36397 1
   37663    36388    36440 1
   37664    36389    36390 1
   37665    36389    36441 1
   37666    36389    36442 1
   37667    36390    36391 1
   37668    36390    36443 1
   37669    36390    36444 1
   37670    36391    36392 1
   37671    36391    36445 1
   37672    36391    36446 1
   37673    36392    36393 1
   37674    36392    36447 1
   37675    36392    36448 1
   37676    36393    36394 1
   37677    36393    36449 1
   37678    36393    36450 1
   37679    36394    36395 1
   37680    36394    36451 1
   37681    36394    36452 1
   37682    36395    36396 1
   37683    36395    36453 1
   37684    36395    36454 1
   37685    36396    36455 1
   37686    36396    36456 1
   37687    36396    36457 1
   37688    36397    36398 1
   37689    36397    36458 1
   37690    36397    36459 1
   37691    36398    36399 1
   37692    36399    36400 1
   37693    36399    36460 1
   37694    36399    36461 1
   37695    36400    36401 1
   37696    36400    36409 1
   37697    36400    36462 1
   37698    36401    36402 1
   37699    36401    36463 1
   37700    36401    36464 1
   37701    36402    36403 1
   37702    36402    36465 1
   37703    36402    36466 1
   37704    36403    36404 1
   37705    36403    36467 1
   37706    36403    36468 1
   37707    36404    36405 1
   37708    36404    36469 1
   37709    36404    36470 1
   37710    36405    36406 1
   37711    36405    36471 1
   37712    36405    36472 1
   37713    36406    36407 1
   37714    36406    36473 1
   37715    36406    36474 1
   37716    36407    36408 1
   37717    36407    36475 1
   37718    36407    36476 1
   37719    36408    36477 1
   37720    36408    36478 1
   37721    36408    36479 1
   37722    36409    36410 1
   37723    36409    36480 1
   37724    36409    36481 1
   37725    36410    36411 1
   37726    36410    36482 1
   37727    36410    36483 1
   37728    36411    36412 1
   37729    36411    36484 1
   37730    36411    36485 1
   37731    36412    36413 1
   37732    36412    36486 1
   37733    36412    36487 1
   37734    36413    36414 1
   37735    36413    36488 1
   37736    36413    36489 1
   37737    36414    36415 1
   37738    36414    36490 1
   37739    36414    36491 1
   37740    36415    36416 1
   37741    36415    36492 1
   37742    36415    36493 1
   37743    36416    36417 1
   37744    36416    36494 1
   37745    36416    36495 1
   37746    36417    36418 1
   37747    36417    36496 1
   37748    36417    36497 1
   37749    36418    36498 1
   37750    36418    36499 1
   37751    36418    36500 1
@<TRIPOS>SUBSTRUCTURE
       1 RES             1 RESIDUE    0 **** ROOT      0
