@<TRIPOS>MOLECULE
RES
30502 31751 1 0 1
SMALL
NO_CHARGES
@<TRIPOS>CRYSIN
 1126.8890   905.2750  1052.5679    90.0000    90.0000    90.0000 1 1
@<TRIPOS>ATOM
       1 C0           9.8894     9.5092     9.8021 C0            1 RES     
       2 C0           8.8250    10.5723    10.2918 C0            1 RES     
       3 C0           9.4184    11.7555    10.5773 C0            1 RES     
       4 S1           8.3533    12.9561    11.0682 S1            1 RES     
       5 C0           6.9918    11.9505    10.9185 C0            1 RES     
       6 C0           7.4341    10.6675    10.5654 C0            1 RES     
       7 C0          10.8225    11.6250    10.4523 C0            1 RES     
       8 C0          11.1067    10.4055    10.0551 C0            1 RES     
       9 C0          12.5208    10.1627    10.1148 C0            1 RES     
      10 C0          13.2079    11.2660    10.5875 C0            1 RES     
      11 S1          12.1683    12.7002    10.9148 S1            1 RES     
      12 H2           6.7431     9.8698    10.4753 H2            1 RES     
      13 H2          12.9582     9.2224     9.9573 H2            1 RES     
      14 N3           3.2027    11.8868    10.6339 N3            1 RES     
      15 C0           4.5098    11.5020    10.6187 C0            1 RES     
      16 C0           5.5512    12.3732    11.0356 C0            1 RES     
      17 C0           5.1536    13.6531    11.4788 C0            1 RES     
      18 N3           6.0035    14.6166    11.9200 N3            1 RES     
      19 S1           4.9792    15.8574    12.2904 S1            1 RES     
      20 N3           3.4858    15.2660    11.9194 N3            1 RES     
      21 C0           3.7738    14.0124    11.4797 C0            1 RES     
      22 C0           2.8110    13.1163    11.0492 C0            1 RES     
      23 H4           4.7215    10.5213    10.2460 H4            1 RES     
      24 C5           2.8239    17.0561     6.1973 C5            1 RES     
      25 C5           3.6842    16.7110     7.4128 C5            1 RES     
      26 C5           3.8921    15.1980     7.5960 C5            1 RES     
      27 C5           4.7132    14.5522     6.4648 C5            1 RES     
      28 C5           4.9216    13.0527     6.7263 C5            1 RES     
      29 C5           5.8674    12.4249     5.6789 C5            1 RES     
      30 C5           6.1798    10.9206     5.8980 C5            1 RES     
      31 C5           6.6381    10.6659     7.3350 C5            1 RES     
      32 C5           7.3762     9.3372     7.6360 C5            1 RES     
      33 C5           6.5700     7.9816     7.6072 C5            1 RES     
      34 C5           5.6688     7.9774     8.8731 C5            1 RES     
      35 C5           4.7277     6.8690     9.3596 C5            1 RES     
      36 C5           4.1279     7.4195    10.6954 C5            1 RES     
      37 C5           3.1325     6.5417    11.4520 C5            1 RES     
      38 C5           3.7796     5.3219    12.0961 C5            1 RES     
      39 C5           8.8515     9.3808     7.2123 C5            1 RES     
      40 C0           9.8257     8.7954     8.3152 C0            1 RES     
      41 C5          11.1596     8.2994     7.6071 C5            1 RES     
      42 C5          11.6163     6.8188     7.8520 C5            1 RES     
      43 C5          12.4900     6.6187     9.1240 C5            1 RES     
      44 C5          13.9622     7.0754     8.9904 C5            1 RES     
      45 C5          14.7127     7.1267    10.3357 C5            1 RES     
      46 C5          15.0178     5.7616    10.9721 C5            1 RES     
      47 C5          15.9622     4.8643    10.1489 C5            1 RES     
      48 C5          17.3277     5.5068     9.8852 C5            1 RES     
      49 C5          12.2416     6.1369     6.5736 C5            1 RES     
      50 C5          13.2853     6.9597     5.7688 C5            1 RES     
      51 C5          14.0283     6.1595     4.6754 C5            1 RES     
      52 C5          13.1333     5.5903     3.5566 C5            1 RES     
      53 C5          13.9359     4.8508     2.4580 C5            1 RES     
      54 C5          14.8497     5.7797     1.6285 C5            1 RES     
      55 C5          15.6618     5.0512     0.5406 C5            1 RES     
      56 C5          14.8032     4.4202    -0.5555 C5            1 RES     
      57 H6           3.3155    16.7432     5.2543 H6            1 RES     
      58 H6           2.6698    18.1549     6.1540 H6            1 RES     
      59 H6           1.8321    16.5626     6.2789 H6            1 RES     
      60 H6           4.6674    17.2244     7.3334 H6            1 RES     
      61 H6           3.1659    17.1001     8.3164 H6            1 RES     
      62 H6           4.4422    15.0518     8.5526 H6            1 RES     
      63 H6           2.9039    14.6976     7.6869 H6            1 RES     
      64 H6           5.7031    15.0595     6.4218 H6            1 RES     
      65 H6           4.2052    14.6737     5.4863 H6            1 RES     
      66 H6           5.3785    12.9612     7.7347 H6            1 RES     
      67 H6           3.9431    12.5266     6.7242 H6            1 RES     
      68 H6           5.4512    12.5597     4.6575 H6            1 RES     
      69 H6           6.8308    12.9806     5.7291 H6            1 RES     
      70 H6           5.2925    10.2866     5.6850 H6            1 RES     
      71 H6           6.9870    10.6510     5.1832 H6            1 RES     
      72 H6           5.7584    10.7706     7.9971 H6            1 RES     
      73 H6           7.3356    11.4852     7.6231 H6            1 RES     
      74 H6           7.5568     9.4266     8.6451 H6            1 RES     
      75 H6           6.0008     7.8761     6.6598 H6            1 RES     
      76 H6           7.2708     7.1231     7.7037 H6            1 RES     
      77 H6           6.3939     8.0156     9.7077 H6            1 RES     
      78 H6           5.0452     8.8842     8.7986 H6            1 RES     
      79 H6           5.2957     5.9300     9.5358 H6            1 RES     
      80 H6           3.9198     6.6865     8.6211 H6            1 RES     
      81 H6           4.9475     7.6814    11.4058 H6            1 RES     
      82 H6           3.5869     8.3618    10.4579 H6            1 RES     
      83 H6           2.2955     6.2490    10.7862 H6            1 RES     
      84 H6           2.7171     7.1599    12.2813 H6            1 RES     
      85 H6           4.5902     5.6394    12.7892 H6            1 RES     
      86 H6           4.1932     4.6415    11.3269 H6            1 RES     
      87 H6           3.0132     4.7797    12.6903 H6            1 RES     
      88 H6           9.2072    10.4217     7.0525 H6            1 RES     
      89 H6           8.8976     8.8681     6.2273 H6            1 RES     
      90 H6          10.9109     8.2777     6.5291 H6            1 RES     
      91 H6          11.9844     9.0385     7.6424 H6            1 RES     
      92 H6          10.6840     6.2403     8.0419 H6            1 RES     
      93 H6          11.9825     7.1452     9.9591 H6            1 RES     
      94 H6          12.5078     5.5375     9.3811 H6            1 RES     
      95 H6          14.5156     6.4211     8.2903 H6            1 RES     
      96 H6          13.9894     8.0934     8.5585 H6            1 RES     
      97 H6          15.6668     7.6720    10.1869 H6            1 RES     
      98 H6          14.1256     7.7230    11.0639 H6            1 RES     
      99 H6          14.0685     5.2185    11.1627 H6            1 RES     
     100 H6          15.4979     5.9505    11.9572 H6            1 RES     
     101 H6          15.4948     4.5843     9.1825 H6            1 RES     
     102 H6          16.1275     3.9297    10.7263 H6            1 RES     
     103 H6          17.8142     5.7927    10.8423 H6            1 RES     
     104 H6          17.9823     4.7843     9.3552 H6            1 RES     
     105 H6          17.2321     6.4041     9.2396 H6            1 RES     
     106 H6          11.4146     5.9280     5.8611 H6            1 RES     
     107 H6          12.6649     5.1541     6.8752 H6            1 RES     
     108 H6          14.0760     7.3554     6.4200 H6            1 RES     
     109 H6          12.7926     7.8393     5.3024 H6            1 RES     
     110 H6          14.7624     6.8601     4.2302 H6            1 RES     
     111 H6          14.5920     5.3262     5.1503 H6            1 RES     
     112 H6          12.5422     6.4056     3.0858 H6            1 RES     
     113 H6          12.4300     4.8612     4.0077 H6            1 RES     
     114 H6          14.5406     4.0396     2.9196 H6            1 RES     
     115 H6          13.1978     4.3814     1.7714 H6            1 RES     
     116 H6          15.5910     6.2596     2.2977 H6            1 RES     
     117 H6          14.2381     6.5781     1.1543 H6            1 RES     
     118 H6          16.3291     5.7978     0.0557 H6            1 RES     
     119 H6          16.3017     4.2706     1.0055 H6            1 RES     
     120 H6          14.1576     3.6168    -0.1478 H6            1 RES     
     121 H6          15.4658     3.9676    -1.3243 H6            1 RES     
     122 H6          14.1730     5.1925    -1.0453 H6            1 RES     
     123 C0          -2.5327    12.6235    10.5551 C0            1 RES     
     124 C0          -3.2610    13.7093    11.4458 C0            1 RES     
     125 C0          -2.3930    14.6680    11.8469 C0            1 RES     
     126 S1          -3.0924    15.8851    12.7669 S1            1 RES     
     127 C0          -4.6442    15.1982    12.6798 C0            1 RES     
     128 C0          -4.5434    13.9788    11.9948 C0            1 RES     
     129 C0          -1.0834    14.3272    11.4309 C0            1 RES     
     130 C0          -1.1283    13.2066    10.7468 C0            1 RES     
     131 C0           0.1942    12.7128    10.4834 C0            1 RES     
     132 C0           1.1633    13.5343    11.0299 C0            1 RES     
     133 S1           0.5142    15.0090    11.8355 S1            1 RES     
     134 H2          -5.3945    13.3590    11.8785 H2            1 RES     
     135 H2           0.3924    11.7752    10.0568 H2            1 RES     
     136 N3          -8.3589    15.8685    13.1207 N3            1 RES     
     137 C0          -7.1811    15.2755    12.7769 C0            1 RES     
     138 C0          -5.9277    15.8265    13.1547 C0            1 RES     
     139 C0          -5.9727    17.0138    13.9170 C0            1 RES     
     140 N3          -4.8809    17.6807    14.3736 N3            1 RES     
     141 S1          -5.5502    18.9576    15.1783 S1            1 RES     
     142 N3          -7.1735    18.7422    14.9883 N3            1 RES     
     143 C0          -7.2282    17.5985    14.2557 C0            1 RES     
     144 C0          -8.4130    17.0131    13.8448 C0            1 RES     
     145 H4          -7.2413    14.3900    12.1789 H4            1 RES     
     146 C5          -8.2753    21.9278     9.9860 C5            1 RES     
     147 C5          -7.3387    21.1587    10.9176 C5            1 RES     
     148 C5          -7.4342    19.6331    10.7457 C5            1 RES     
     149 C5          -6.9464    19.1410     9.3706 C5            1 RES     
     150 C5          -7.0270    17.6097     9.2765 C5            1 RES     
     151 C5          -6.4025    17.0930     7.9617 C5            1 RES     
     152 C5          -6.3900    15.5490     7.8059 C5            1 RES     
     153 C5          -5.7896    14.8840     9.0458 C5            1 RES     
     154 C5          -5.3163    13.4138     8.9227 C5            1 RES     
     155 C5          -6.3888    12.2665     8.7738 C5            1 RES     
     156 C5          -7.0730    12.1196    10.1613 C5            1 RES     
     157 C5          -8.1468    11.1098    10.5833 C5            1 RES     
     158 C5          -8.4110    11.4235    12.0929 C5            1 RES     
     159 C5          -9.4481    10.5794    12.8317 C5            1 RES     
     160 C5          -8.9887     9.1476    13.0776 C5            1 RES     
     161 C5          -3.9449    13.2977     8.2417 C5            1 RES     
     162 C0          -2.9664    12.3058     8.9945 C0            1 RES     
     163 C5          -1.8888    11.7665     7.9577 C5            1 RES     
     164 C5          -1.7280    10.2137     7.8039 C5            1 RES     
     165 C5          -0.7392     9.5674     8.8167 C5            1 RES     
     166 C5           0.7603     9.7777     8.4989 C5            1 RES     
     167 C5           1.6947     9.3757     9.6569 C5            1 RES     
     168 C5           1.7916     7.8668     9.9315 C5            1 RES     
     169 C5           2.3902     7.0397     8.7773 C5            1 RES     
     170 C5           3.8072     7.4771     8.3929 C5            1 RES     
     171 C5          -1.4588     9.7564     6.3177 C5            1 RES     
     172 C5          -0.3939    10.5510     5.5122 C5            1 RES     
     173 C5          -0.0089     9.9160     4.1570 C5            1 RES     
     174 C5          -1.1601     9.7947     3.1388 C5            1 RES     
     175 C5          -0.7053     9.2086     1.7795 C5            1 RES     
     176 C5           0.2531    10.1331     0.9969 C5            1 RES     
     177 C5           0.7209     9.5533    -0.3517 C5            1 RES     
     178 C5          -0.4049     9.3611    -1.3677 C5            1 RES     
     179 H6          -8.0067    21.7667     8.9226 H6            1 RES     
     180 H6          -8.1957    23.0149    10.1976 H6            1 RES     
     181 H6          -9.3264    21.6105    10.1542 H6            1 RES     
     182 H6          -6.2913    21.4959    10.7572 H6            1 RES     
     183 H6          -7.6226    21.4065    11.9638 H6            1 RES     
     184 H6          -6.7930    19.1699    11.5288 H6            1 RES     
     185 H6          -8.4820    19.3064    10.9207 H6            1 RES     
     186 H6          -5.8884    19.4626     9.2427 H6            1 RES     
     187 H6          -7.5555    19.5785     8.5534 H6            1 RES     
     188 H6          -6.4564    17.2027    10.1384 H6            1 RES     
     189 H6          -8.0846    17.2789     9.3552 H6            1 RES     
     190 H6          -6.9265    17.5374     7.0883 H6            1 RES     
     191 H6          -5.3460    17.4434     7.9381 H6            1 RES     
     192 H6          -7.4137    15.1492     7.6426 H6            1 RES     
     193 H6          -5.7737    15.3199     6.9099 H6            1 RES     
     194 H6          -6.5189    14.9808     9.8715 H6            1 RES     
     195 H6          -4.8984    15.4763     9.3553 H6            1 RES     
     196 H6          -4.9738    13.2278     9.8750 H6            1 RES     
     197 H6          -7.1009    12.4905     7.9520 H6            1 RES     
     198 H6          -5.8812    11.3006     8.5573 H6            1 RES     
     199 H6          -6.2413    11.8309    10.8312 H6            1 RES     
     200 H6          -7.4924    13.1129    10.3940 H6            1 RES     
     201 H6          -7.7729    10.0713    10.4524 H6            1 RES     
     202 H6          -9.0750    11.2523     9.9922 H6            1 RES     
     203 H6          -7.4587    11.3615    12.6710 H6            1 RES     
     204 H6          -8.7672    12.4750    12.1605 H6            1 RES     
     205 H6         -10.4172    10.6044    12.2935 H6            1 RES     
     206 H6          -9.5946    11.0458    13.8334 H6            1 RES     
     207 H6          -8.0357     9.1443    13.6521 H6            1 RES     
     208 H6          -8.8483     8.6078    12.1213 H6            1 RES     
     209 H6          -9.7569     8.6226    13.6848 H6            1 RES     
     210 H6          -3.4026    14.2679     8.2319 H6            1 RES     
     211 H6          -4.1554    13.0338     7.1828 H6            1 RES     
     212 H6          -2.2929    12.0454     6.9661 H6            1 RES     
     213 H6          -0.9292    12.3199     7.9838 H6            1 RES     
     214 H6          -2.7239     9.7791     8.0473 H6            1 RES     
     215 H6          -0.9934     9.9609     9.8230 H6            1 RES     
     216 H6          -0.9151     8.4702     8.8401 H6            1 RES     
     217 H6           1.0515     9.2219     7.5874 H6            1 RES     
     218 H6           0.9403    10.8482     8.2862 H6            1 RES     
     219 H6           2.7106     9.7650     9.4420 H6            1 RES     
     220 H6           1.3627     9.8753    10.5901 H6            1 RES     
     221 H6           0.7870     7.4688    10.1861 H6            1 RES     
     222 H6           2.4411     7.7292    10.8236 H6            1 RES     
     223 H6           1.7363     7.0835     7.8822 H6            1 RES     
     224 H6           2.4354     5.9806     9.1098 H6            1 RES     
     225 H6           4.4795     7.4377     9.2766 H6            1 RES     
     226 H6           4.2067     6.7980     7.6114 H6            1 RES     
     227 H6           3.8113     8.5045     7.9741 H6            1 RES     
     228 H6          -2.4072     9.8709     5.7498 H6            1 RES     
     229 H6          -1.2155     8.6716     6.3260 H6            1 RES     
     230 H6           0.5504    10.6359     6.0663 H6            1 RES     
     231 H6          -0.7506    11.5885     5.3380 H6            1 RES     
     232 H6           0.7839    10.5627     3.7313 H6            1 RES     
     233 H6           0.4275     8.9083     4.3352 H6            1 RES     
     234 H6          -1.6262    10.7890     2.9662 H6            1 RES     
     235 H6          -1.9284     9.1141     3.5584 H6            1 RES     
     236 H6          -0.2266     8.2179     1.9416 H6            1 RES     
     237 H6          -1.6198     9.0524     1.1664 H6            1 RES     
     238 H6           1.1703    10.3029     1.5948 H6            1 RES     
     239 H6          -0.2370    11.1157     0.8214 H6            1 RES     
     240 H6           1.4532    10.2650    -0.7933 H6            1 RES     
     241 H6           1.2407     8.5850    -0.1870 H6            1 RES     
     242 H6          -1.1398     8.6097    -1.0159 H6            1 RES     
     243 H6           0.0246     8.9953    -2.3251 H6            1 RES     
     244 H6          -0.9208    10.3257    -1.5599 H6            1 RES     
     245 C0         -13.7516    17.5953    14.2955 C0            1 RES     
     246 C0         -14.0913    18.5487    15.5114 C0            1 RES     
     247 C0         -12.9890    19.2175    15.9250 C0            1 RES     
     248 S1         -13.2684    20.2842    17.1903 S1            1 RES     
     249 C0         -14.9266    19.9204    17.2646 C0            1 RES     
     250 C0         -15.1910    18.9004    16.3394 C0            1 RES     
     251 C0         -11.8587    18.7613    15.2050 C0            1 RES     
     252 C0         -12.2425    17.8610    14.3287 C0            1 RES     
     253 C0         -11.1098    17.2202    13.7215 C0            1 RES     
     254 C0          -9.9177    17.7057    14.2275 C0            1 RES     
     255 S1         -10.1104    19.0369    15.4257 S1            1 RES     
     256 H2         -16.1625    18.4849    16.2649 H2            1 RES     
     257 H2         -11.1818    16.3910    13.0832 H2            1 RES     
     258 N3         -18.3054    21.1065    18.5371 N3            1 RES     
     259 C0         -17.3455    20.4154    17.8604 C0            1 RES     
     260 C0         -15.9616    20.6327    18.0947 C0            1 RES     
     261 C0         -15.6387    21.5938    19.0768 C0            1 RES     
     262 N3         -14.3745    21.9314    19.4415 N3            1 RES     
     263 S1         -14.6290    23.0775    20.6024 S1            1 RES     
     264 N3         -16.2707    23.2011    20.6876 N3            1 RES     
     265 C0         -16.6762    22.2919    19.7620 C0            1 RES     
     266 C0         -18.0061    22.0377    19.4757 C0            1 RES     
     267 H4         -17.6812    19.7219    17.1175 H4            1 RES     
     268 C5         -17.3928    27.6260    16.7448 C5            1 RES     
     269 C5         -16.5151    26.5058    17.3030 C5            1 RES     
     270 C5         -16.9588    25.1058    16.8457 C5            1 RES     
     271 C5         -16.7959    24.8768    15.3318 C5            1 RES     
     272 C5         -17.2149    23.4502    14.9452 C5            1 RES     
     273 C5         -16.9165    23.1596    13.4579 C5            1 RES     
     274 C5         -17.2573    21.7191    12.9917 C5            1 RES     
     275 C5         -16.6365    20.6841    13.9315 C5            1 RES     
     276 C5         -16.5119    19.2256    13.4232 C5            1 RES     
     277 C5         -17.8147    18.3527    13.2526 C5            1 RES     
     278 C5         -18.3018    18.0025    14.6860 C5            1 RES     
     279 C5         -19.4922    17.1254    15.0918 C5            1 RES     
     280 C5         -19.4574    17.1128    16.6557 C5            1 RES     
     281 C5         -20.5301    16.3124    17.3921 C5            1 RES     
     282 C5         -20.3562    14.8055    17.2487 C5            1 RES     
     283 C5         -15.3129    19.0364    12.4826 C5            1 RES     
     284 C0         -14.4688    17.7385    12.8157 C0            1 RES     
     285 C5         -13.6966    17.2808    11.5038 C5            1 RES     
     286 C5         -13.8959    15.8056    11.0092 C5            1 RES     
     287 C5         -12.9295    14.7743    11.6603 C5            1 RES     
     288 C5         -11.4835    14.7881    11.1103 C5            1 RES     
     289 C5         -10.4960    13.9653    11.9610 C5            1 RES     
     290 C5         -10.6844    12.4414    11.8989 C5            1 RES     
     291 C5         -10.4535    11.8205    10.5076 C5            1 RES     
     292 C5          -9.0485    12.0816     9.9556 C5            1 RES     
     293 C5         -13.9531    15.6745     9.4377 C5            1 RES     
     294 C5         -12.8740    16.4386     8.6217 C5            1 RES     
     295 C5         -12.8380    16.0864     7.1175 C5            1 RES     
     296 C5         -14.1260    16.4139     6.3361 C5            1 RES     
     297 C5         -14.0129    16.0972     4.8246 C5            1 RES     
     298 C5         -13.0054    16.9987     4.0774 C5            1 RES     
     299 C5         -12.8767    16.6831     2.5749 C5            1 RES     
     300 C5         -14.1551    16.9380     1.7763 C5            1 RES     
     301 H6         -17.3249    27.6777    15.6395 H6            1 RES     
     302 H6         -17.0523    28.6005    17.1539 H6            1 RES     
     303 H6         -18.4508    27.4670    17.0434 H6            1 RES     
     304 H6         -15.4553    26.6827    17.0166 H6            1 RES     
     305 H6         -16.5818    26.5439    18.4123 H6            1 RES     
     306 H6         -16.3228    24.3649    17.3802 H6            1 RES     
     307 H6         -18.0145    24.9356    17.1483 H6            1 RES     
     308 H6         -15.7245    25.0292    15.0714 H6            1 RES     
     309 H6         -17.4114    25.5956    14.7531 H6            1 RES     
     310 H6         -16.6235    22.7567    15.5803 H6            1 RES     
     311 H6         -18.2953    23.3006    15.1564 H6            1 RES     
     312 H6         -17.4565    23.8833    12.8104 H6            1 RES     
     313 H6         -15.8249    23.3149    13.3038 H6            1 RES     
     314 H6         -18.3555    21.5551    12.9500 H6            1 RES     
     315 H6         -16.8435    21.6051    11.9665 H6            1 RES     
     316 H6         -17.1981    20.7081    14.8839 H6            1 RES     
     317 H6         -15.6036    21.0203    14.1781 H6            1 RES     
     318 H6         -16.0801    18.7618    14.2340 H6            1 RES     
     319 H6         -18.5759    18.8866    12.6458 H6            1 RES     
     320 H6         -17.5629    17.3924    12.7507 H6            1 RES     
     321 H6         -17.4615    17.4219    15.1109 H6            1 RES     
     322 H6         -18.4602    18.9697    15.1921 H6            1 RES     
     323 H6         -19.3725    16.0988    14.6830 H6            1 RES     
     324 H6         -20.4454    17.5646    14.7314 H6            1 RES     
     325 H6         -18.4656    16.7495    17.0153 H6            1 RES     
     326 H6         -19.5666    18.1638    17.0029 H6            1 RES     
     327 H6         -21.5402    16.6339    17.0665 H6            1 RES     
     328 H6         -20.4240    16.5457    18.4769 H6            1 RES     
     329 H6         -19.3518    14.4991    17.6168 H6            1 RES     
     330 H6         -20.4772    14.4924    16.1937 H6            1 RES     
     331 H6         -21.1205    14.2942    17.8722 H6            1 RES     
     332 H6         -14.5833    19.8708    12.5666 H6            1 RES     
     333 H6         -15.7290    19.0726    11.4527 H6            1 RES     
     334 H6         -14.1736    17.8536    10.6861 H6            1 RES     
     335 H6         -12.6478    17.6353    11.4573 H6            1 RES     
     336 H6         -14.9145    15.5069    11.3456 H6            1 RES     
     337 H6         -12.9423    14.9558    12.7554 H6            1 RES     
     338 H6         -13.3304    13.7512    11.4932 H6            1 RES     
     339 H6         -11.4557    14.4227    10.0662 H6            1 RES     
     340 H6         -11.1123    15.8300    11.0894 H6            1 RES     
     341 H6          -9.4636    14.2105    11.6389 H6            1 RES     
     342 H6         -10.5720    14.2791    13.0222 H6            1 RES     
     343 H6         -11.7019    12.1766    12.2551 H6            1 RES     
     344 H6          -9.9548    11.9843    12.6028 H6            1 RES     
     345 H6         -11.2078    12.1896     9.7826 H6            1 RES     
     346 H6         -10.5871    10.7217    10.6025 H6            1 RES     
     347 H6          -8.2772    11.7163    10.6671 H6            1 RES     
     348 H6          -8.9233    11.5485     8.9905 H6            1 RES     
     349 H6          -8.8868    13.1621     9.7618 H6            1 RES     
     350 H6         -14.9284    16.0849     9.0977 H6            1 RES     
     351 H6         -13.9487    14.5934     9.1782 H6            1 RES     
     352 H6         -11.8621    16.2227     8.9897 H6            1 RES     
     353 H6         -13.0224    17.5337     8.7341 H6            1 RES     
     354 H6         -11.9971    16.6665     6.6883 H6            1 RES     
     355 H6         -12.6056    15.0049     6.9997 H6            1 RES     
     356 H6         -14.3891    17.4866     6.4622 H6            1 RES     
     357 H6         -14.9514    15.7985     6.7479 H6            1 RES     
     358 H6         -13.7383    15.0284     4.6866 H6            1 RES     
     359 H6         -15.0199    16.2538     4.3796 H6            1 RES     
     360 H6         -11.9951    16.8582     4.5100 H6            1 RES     
     361 H6         -13.2945    18.0650     4.2030 H6            1 RES     
     362 H6         -12.0827    17.3398     2.1552 H6            1 RES     
     363 H6         -12.5574    15.6278     2.4362 H6            1 RES     
     364 H6         -14.9733    16.2652     2.1022 H6            1 RES     
     365 H6         -13.9598    16.7406     0.7003 H6            1 RES     
     366 H6         -14.4755    17.9956     1.8872 H6            1 RES     
     367 C0         -22.9704    23.4217    21.0512 C0            1 RES     
     368 C0         -22.9151    24.1033    22.4779 C0            1 RES     
     369 C0         -21.6466    24.4510    22.7996 C0            1 RES     
     370 S1         -21.5016    25.2186    24.2851 S1            1 RES     
     371 C0         -23.1696    25.1437    24.6005 C0            1 RES     
     372 C0         -23.7796    24.4352    23.5554 C0            1 RES     
     373 C0         -20.7589    23.9883    21.7986 C0            1 RES     
     374 C0         -21.4514    23.4034    20.8477 C0            1 RES     
     375 C0         -20.5842    22.7371    19.9170 C0            1 RES     
     376 C0         -19.2546    22.8719    20.2728 C0            1 RES     
     377 S1         -18.9792    23.8930    21.7310 S1            1 RES     
     378 H2         -24.8175    24.2260    23.5858 H2            1 RES     
     379 H2         -20.9252    22.1090    19.1491 H2            1 RES     
     380 N3         -25.9910    26.5664    26.7120 N3            1 RES     
     381 C0         -25.3117    25.8987    25.7375 C0            1 RES     
     382 C0         -23.8943    25.8083    25.7411 C0            1 RES     
     383 C0         -23.2321    26.4368    26.8177 C0            1 RES     
     384 N3         -21.8852    26.4514    26.9939 N3            1 RES     
     385 S1         -21.7146    27.3152    28.3905 S1            1 RES     
     386 N3         -23.2609    27.7005    28.8125 N3            1 RES     
     387 C0         -23.9835    27.1226    27.8166 C0            1 RES     
     388 C0         -25.3644    27.1807    27.7452 C0            1 RES     
     389 H4         -25.8938    25.4714    24.9475 H4            1 RES     
     390 C5         -23.9812    33.0614    26.1430 C5            1 RES     
     391 C5         -23.2907    31.7049    26.2826 C5            1 RES     
     392 C5         -24.0858    30.5535    25.6437 C5            1 RES     
     393 C5         -24.2011    30.6659    24.1124 C5            1 RES     
     394 C5         -24.9676    29.4679    23.5313 C5            1 RES     
     395 C5         -24.9613    29.4913    21.9869 C5            1 RES     
     396 C5         -25.6671    28.2854    21.3115 C5            1 RES     
     397 C5         -25.1500    26.9645    21.8840 C5            1 RES     
     398 C5         -25.4163    25.6700    21.0753 C5            1 RES     
     399 C5         -26.8861    25.1046    20.9838 C5            1 RES     
     400 C5         -27.2197    24.5148    22.3822 C5            1 RES     
     401 C5         -28.4967    23.7888    22.8217 C5            1 RES     
     402 C5         -28.2348    23.3992    24.3139 C5            1 RES     
     403 C5         -29.3330    22.6473    25.0639 C5            1 RES     
     404 C5         -29.5082    21.2112    24.5861 C5            1 RES     
     405 C5         -24.4379    25.5027    19.9037 C5            1 RES     
     406 C0         -23.8509    24.0356    19.7973 C0            1 RES     
     407 C5         -23.3968    23.7748    18.2965 C5            1 RES     
     408 C5         -23.9776    22.5176    17.5596 C5            1 RES     
     409 C5         -23.1686    21.2084    17.7894 C5            1 RES     
     410 C5         -21.8505    21.0991    16.9866 C5            1 RES     
     411 C5         -20.9471    19.9379    17.4464 C5            1 RES     
     412 C5         -21.4638    18.5296    17.1128 C5            1 RES     
     413 C5         -21.5791    18.2264    15.6063 C5            1 RES     
     414 C5         -20.2480    18.3610    14.8600 C5            1 RES     
     415 C5         -24.2929    22.7757    16.0351 C5            1 RES     
     416 C5         -23.2081    23.5106    15.2002 C5            1 RES     
     417 C5         -23.4708    23.5252    13.6774 C5            1 RES     
     418 C5         -24.7600    24.2493    13.2410 C5            1 RES     
     419 C5         -24.9417    24.2859    11.7036 C5            1 RES     
     420 C5         -23.8865    25.1483    10.9765 C5            1 RES     
     421 C5         -24.0516    25.1812     9.4450 C5            1 RES     
     422 C5         -25.3496    25.8383     8.9755 C5            1 RES     
     423 H6         -24.0679    33.3615    25.0794 H6            1 RES     
     424 H6         -23.3838    33.8357    26.6689 H6            1 RES     
     425 H6         -24.9928    33.0238    26.6004 H6            1 RES     
     426 H6         -22.2717    31.7563    25.8403 H6            1 RES     
     427 H6         -23.1830    31.4893    27.3681 H6            1 RES     
     428 H6         -23.5511    29.6072    25.8841 H6            1 RES     
     429 H6         -25.0970    30.5038    26.1022 H6            1 RES     
     430 H6         -23.1723    30.6857    23.6878 H6            1 RES     
     431 H6         -24.7272    31.5979    23.8212 H6            1 RES     
     432 H6         -24.4510    28.5509    23.8864 H6            1 RES     
     433 H6         -26.0117    29.4640    23.9109 H6            1 RES     
     434 H6         -25.4237    30.4312    21.6162 H6            1 RES     
     435 H6         -23.8967    29.4852    21.6611 H6            1 RES     
     436 H6         -26.7687    28.3310    21.4488 H6            1 RES     
     437 H6         -25.4432    28.3476    20.2247 H6            1 RES     
     438 H6         -25.5465    26.8596    22.9111 H6            1 RES     
     439 H6         -24.0443    27.0464    21.9911 H6            1 RES     
     440 H6         -24.9788    24.9586    21.6765 H6            1 RES     
     441 H6         -27.5968    25.8921    20.6560 H6            1 RES     
     442 H6         -26.9224    24.2622    20.2582 H6            1 RES     
     443 H6         -26.4695    23.7119    22.5107 H6            1 RES     
     444 H6         -27.0912    25.3465    23.0954 H6            1 RES     
     445 H6         -28.6608    22.8841    22.1973 H6            1 RES     
     446 H6         -29.3766    24.4610    22.7480 H6            1 RES     
     447 H6         -27.3016    22.7929    24.3949 H6            1 RES     
     448 H6         -28.0644    24.3400    24.8822 H6            1 RES     
     449 H6         -30.2877    23.2087    25.0105 H6            1 RES     
     450 H6         -29.0204    22.5940    26.1325 H6            1 RES     
     451 H6         -28.5494    20.6551    24.6844 H6            1 RES     
     452 H6         -29.8479    21.1838    23.5328 H6            1 RES     
     453 H6         -30.2635    20.7083    25.2273 H6            1 RES     
     454 H6         -23.5427    26.1522    20.0142 H6            1 RES     
     455 H6         -24.9841    25.8548    19.0021 H6            1 RES     
     456 H6         -23.8558    24.5999    17.7195 H6            1 RES     
     457 H6         -22.3151    23.9409    18.1228 H6            1 RES     
     458 H6         -24.9753    22.3307    18.0172 H6            1 RES     
     459 H6         -22.9804    21.1239    18.8801 H6            1 RES     
     460 H6         -23.7991    20.3407    17.4976 H6            1 RES     
     461 H6         -22.0560    20.9930    15.9045 H6            1 RES     
     462 H6         -21.2725    22.0344    17.1074 H6            1 RES     
     463 H6         -19.9453    20.0679    16.9890 H6            1 RES     
     464 H6         -20.7967    19.9989    18.5438 H6            1 RES     
     465 H6         -22.4504    18.3702    17.5962 H6            1 RES     
     466 H6         -20.7530    17.7979    17.5555 H6            1 RES     
     467 H6         -22.3357    18.8833    15.1302 H6            1 RES     
     468 H6         -21.9289    17.1774    15.4995 H6            1 RES     
     469 H6         -19.4762    17.7079    15.3207 H6            1 RES     
     470 H6         -20.3836    18.0590    13.8008 H6            1 RES     
     471 H6         -19.8897    19.4111    14.8628 H6            1 RES     
     472 H6         -25.1973    23.4193    15.9794 H6            1 RES     
     473 H6         -24.5581    21.8037    15.5651 H6            1 RES     
     474 H6         -22.2228    23.0398    15.3154 H6            1 RES     
     475 H6         -23.1009    24.5563    15.5594 H6            1 RES     
     476 H6         -22.5982    24.0342    13.2220 H6            1 RES     
     477 H6         -23.4949    22.4791    13.2996 H6            1 RES     
     478 H6         -24.7663    25.2903    13.6309 H6            1 RES     
     479 H6         -25.6278    23.7079    13.6695 H6            1 RES     
     480 H6         -24.9254    23.2494    11.3010 H6            1 RES     
     481 H6         -25.9464    24.7175    11.5016 H6            1 RES     
     482 H6         -22.8770    24.7344    11.1693 H6            1 RES     
     483 H6         -23.9193    26.1879    11.3696 H6            1 RES     
     484 H6         -23.2065    25.7692     9.0234 H6            1 RES     
     485 H6         -23.9893    24.1499     9.0357 H6            1 RES     
     486 H6         -26.2354    25.2613     9.3084 H6            1 RES     
     487 H6         -25.3621    25.8711     7.8648 H6            1 RES     
     488 H6         -25.4166    26.8785     9.3587 H6            1 RES     
     489 C0         -29.6298    28.9981    30.4922 C0            1 RES     
     490 C0         -29.2200    29.3007    31.9900 C0            1 RES     
     491 C0         -27.8732    29.3344    32.1262 C0            1 RES     
     492 S1         -27.3498    29.6896    33.6808 S1            1 RES     
     493 C0         -28.9299    29.8351    34.2885 C0            1 RES     
     494 C0         -29.8248    29.5132    33.2579 C0            1 RES     
     495 C0         -27.2628    28.9746    30.9006 C0            1 RES     
     496 C0         -28.1969    28.7630    30.0015 C0            1 RES     
     497 C0         -27.6394    28.1955    28.8059 C0            1 RES     
     498 C0         -26.2740    28.0070    28.9199 C0            1 RES     
     499 S1         -25.5745    28.5880    30.4749 S1            1 RES     
     500 H2         -30.8673    29.4879    33.4436 H2            1 RES     
     501 H2         -28.2163    27.8376    28.0064 H2            1 RES     
     502 N3         -31.0385    31.1869    37.1466 N3            1 RES     
     503 C0         -30.6692    30.6615    35.9448 C0            1 RES     
     504 C0         -29.3192    30.3261    35.6578 C0            1 RES     
     505 C0         -28.3864    30.5549    36.6923 C0            1 RES     
     506 N3         -27.0566    30.2911    36.6060 N3            1 RES     
     507 S1         -26.5010    30.7548    38.0900 S1            1 RES     
     508 N3         -27.8496    31.2934    38.8703 N3            1 RES     
     509 C0         -28.8179    31.1044    37.9352 C0            1 RES     
     510 C0         -30.1496    31.4187    38.1434 C0            1 RES     
     511 H4         -31.4393    30.5428    35.2111 H4            1 RES     
     512 C5         -27.7938    37.1759    37.5366 C5            1 RES     
     513 C5         -27.3963    35.7257    37.2620 C5            1 RES     
     514 C5         -28.5045    34.9166    36.5669 C5            1 RES     
     515 C5         -28.8180    35.4079    35.1417 C5            1 RES     
     516 C5         -29.9001    34.5356    34.4870 C5            1 RES     
     517 C5         -30.1170    34.9237    33.0078 C5            1 RES     
     518 C5         -31.1561    34.0555    32.2494 C5            1 RES     
     519 C5         -30.8544    32.5669    32.4310 C5            1 RES     
     520 C5         -31.5077    31.5688    31.4422 C5            1 RES     
     521 C5         -33.0614    31.3077    31.5213 C5            1 RES     
     522 C5         -33.3030    30.4704    32.8079 C5            1 RES     
     523 C5         -34.6264    29.8960    33.3271 C5            1 RES     
     524 C5         -34.2364    29.1233    34.6302 C5            1 RES     
     525 C5         -35.3467    28.4191    35.4079 C5            1 RES     
     526 C5         -35.8935    27.1911    34.6905 C5            1 RES     
     527 C5         -30.7717    31.5159    30.0956 C5            1 RES     
     528 C0         -30.5340    30.0367    29.5822 C0            1 RES     
     529 C5         -30.3730    30.0645    28.0011 C5            1 RES     
     530 C5         -31.3113    29.1401    27.1492 C5            1 RES     
     531 C5         -30.7760    27.6929    26.9481 C5            1 RES     
     532 C5         -29.6450    27.5483    25.9022 C5            1 RES     
     533 C5         -28.9529    26.1715    25.9340 C5            1 RES     
     534 C5         -29.8021    24.9956    25.4262 C5            1 RES     
     535 C5         -30.2007    25.0840    23.9402 C5            1 RES     
     536 C5         -28.9968    25.1568    22.9956 C5            1 RES     
     537 C5         -31.7859    29.8040    25.7985 C5            1 RES     
     538 C5         -30.7045    30.5146    24.9384 C5            1 RES     
     539 C5         -31.1800    30.9362    23.5298 C5            1 RES     
     540 C5         -32.3347    31.9575    23.5056 C5            1 RES     
     541 C5         -32.7294    32.3895    22.0719 C5            1 RES     
     542 C5         -31.6335    33.2014    21.3468 C5            1 RES     
     543 C5         -32.0121    33.6256    19.9148 C5            1 RES     
     544 C5         -33.1944    34.5922    19.8469 C5            1 RES     
     545 H6         -27.9705    37.7304    36.5932 H6            1 RES     
     546 H6         -26.9738    37.6861    38.0845 H6            1 RES     
     547 H6         -28.7112    37.2085    38.1622 H6            1 RES     
     548 H6         -26.4666    35.7015    36.6523 H6            1 RES     
     549 H6         -27.1781    35.2430    38.2397 H6            1 RES     
     550 H6         -28.1549    33.8617    36.5024 H6            1 RES     
     551 H6         -29.4239    34.9373    37.1910 H6            1 RES     
     552 H6         -27.8830    35.3476    34.5407 H6            1 RES     
     553 H6         -29.1699    36.4597    35.1528 H6            1 RES     
     554 H6         -29.5447    33.4846    34.5422 H6            1 RES     
     555 H6         -30.8531    34.6245    35.0510 H6            1 RES     
     556 H6         -30.4175    35.9907    32.9320 H6            1 RES     
     557 H6         -29.1384    34.8088    32.4896 H6            1 RES     
     558 H6         -32.1899    34.2594    32.6019 H6            1 RES     
     559 H6         -31.0871    34.3339    31.1756 H6            1 RES     
     560 H6         -31.1081    32.2921    33.4718 H6            1 RES     
     561 H6         -29.7534    32.4261    32.3383 H6            1 RES     
     562 H6         -31.1484    30.6697    31.7906 H6            1 RES     
     563 H6         -33.6278    32.2624    31.5032 H6            1 RES     
     564 H6         -33.3836    30.6815    30.6602 H6            1 RES     
     565 H6         -32.7312    29.5414    32.6239 H6            1 RES     
     566 H6         -32.8959    31.0731    33.6371 H6            1 RES     
     567 H6         -35.0705    29.2086    32.5749 H6            1 RES     
     568 H6         -35.3434    30.7097    33.5619 H6            1 RES     
     569 H6         -33.4528    28.3614    34.4055 H6            1 RES     
     570 H6         -33.7868    29.8574    35.3345 H6            1 RES     
     571 H6         -36.1566    29.1353    35.6541 H6            1 RES     
     572 H6         -34.8985    28.0595    36.3630 H6            1 RES     
     573 H6         -35.0719    26.4685    34.4877 H6            1 RES     
     574 H6         -36.3829    27.4746    33.7388 H6            1 RES     
     575 H6         -36.6355    26.6906    35.3487 H6            1 RES     
     576 H6         -29.7521    31.9535    30.1620 H6            1 RES     
     577 H6         -31.3571    32.1622    29.4064 H6            1 RES     
     578 H6         -30.7251    31.0702    27.7031 H6            1 RES     
     579 H6         -29.3186    30.0750    27.6605 H6            1 RES     
     580 H6         -32.2472    29.0274    27.7419 H6            1 RES     
     581 H6         -30.4512    27.3201    27.9419 H6            1 RES     
     582 H6         -31.6133    27.0436    26.6123 H6            1 RES     
     583 H6         -30.0259    27.7401    24.8811 H6            1 RES     
     584 H6         -28.8691    28.3121    26.0976 H6            1 RES     
     585 H6         -28.0252    26.2289    25.3290 H6            1 RES     
     586 H6         -28.6325    25.9427    26.9710 H6            1 RES     
     587 H6         -30.7175    24.9012    26.0471 H6            1 RES     
     588 H6         -29.2067    24.0669    25.5659 H6            1 RES     
     589 H6         -30.8613    25.9572    23.7620 H6            1 RES     
     590 H6         -30.7784    24.1683    23.6912 H6            1 RES     
     591 H6         -28.3230    24.2882    23.1569 H6            1 RES     
     592 H6         -29.3487    25.1436    21.9433 H6            1 RES     
     593 H6         -28.4259    26.0967    23.1433 H6            1 RES     
     594 H6         -32.5298    30.5906    26.0496 H6            1 RES     
     595 H6         -32.3190    29.0334    25.2003 H6            1 RES     
     596 H6         -29.8366    29.8648    24.7641 H6            1 RES     
     597 H6         -30.3245    31.4095    25.4755 H6            1 RES     
     598 H6         -30.2958    31.3779    23.0287 H6            1 RES     
     599 H6         -31.4827    30.0307    22.9588 H6            1 RES     
     600 H6         -32.0606    32.8606    24.0930 H6            1 RES     
     601 H6         -33.2251    31.4904    23.9733 H6            1 RES     
     602 H6         -32.9946    31.4919    21.4712 H6            1 RES     
     603 H6         -33.6372    33.0258    22.1585 H6            1 RES     
     604 H6         -30.7186    32.5834    21.2540 H6            1 RES     
     605 H6         -31.3850    34.1071    21.9421 H6            1 RES     
     606 H6         -31.1326    34.1396    19.4675 H6            1 RES     
     607 H6         -32.2328    32.7265    19.3000 H6            1 RES     
     608 H6         -34.1240    34.1169    20.2190 H6            1 RES     
     609 H6         -33.3636    34.8896    18.7896 H6            1 RES     
     610 H6         -32.9802    35.5069    20.4393 H6            1 RES     
     611 C0         -33.4744    33.2495    41.9690 C0            1 RES     
     612 C0         -32.7928    33.1111    43.3900 C0            1 RES     
     613 C0         -31.4649    32.8751    43.2692 C0            1 RES     
     614 S1         -30.6540    32.7535    44.7336 S1            1 RES     
     615 C0         -32.0590    33.0249    45.6499 C0            1 RES     
     616 C0         -33.1441    33.1188    44.7666 C0            1 RES     
     617 C0         -31.1333    32.7156    41.9022 C0            1 RES     
     618 C0         -32.2134    32.8905    41.1752 C0            1 RES     
     619 C0         -31.9729    32.5347    39.8048 C0            1 RES     
     620 C0         -30.6778    32.0884    39.6139 C0            1 RES     
     621 S1         -29.6485    32.1516    41.0908 S1            1 RES     
     622 H2         -34.1288    33.2330    45.1398 H2            1 RES     
     623 H2         -32.7246    32.4837    39.0750 H2            1 RES     
     624 N3         -33.3842    34.0067    49.0736 N3            1 RES     
     625 C0         -33.3174    33.7256    47.7420 C0            1 RES     
     626 C0         -32.1278    33.2368    47.1392 C0            1 RES     
     627 C0         -31.0253    33.0463    47.9999 C0            1 RES     
     628 N3         -29.8103    32.5820    47.6082 N3            1 RES     
     629 S1         -28.9555    32.5752    49.0207 S1            1 RES     
     630 N3         -30.0274    33.1407    50.1383 N3            1 RES     
     631 C0         -31.1410    33.3518    49.3878 C0            1 RES     
     632 C0         -32.3290    33.8357    49.9072 C0            1 RES     
     633 H4         -34.1948    33.9213    47.1612 H4            1 RES     
     634 C5         -28.9134    39.0682    50.0444 C5            1 RES     
     635 C5         -28.8800    37.6782    49.4093 C5            1 RES     
     636 C5         -30.2257    37.2643    48.7899 C5            1 RES     
     637 C5         -30.6340    38.1272    47.5818 C5            1 RES     
     638 C5         -31.9620    37.6387    46.9833 C5            1 RES     
     639 C5         -32.3071    38.3989    45.6838 C5            1 RES     
     640 C5         -33.6080    37.9315    44.9783 C5            1 RES     
     641 C5         -33.6080    36.4133    44.7918 C5            1 RES     
     642 C5         -34.5982    35.8088    43.7647 C5            1 RES     
     643 C5         -36.1427    35.8126    44.0857 C5            1 RES     
     644 C5         -36.3649    34.7493    45.1968 C5            1 RES     
     645 C5         -37.6889    34.3089    45.8323 C5            1 RES     
     646 C5         -37.2849    33.1928    46.8513 C5            1 RES     
     647 C5         -38.3928    32.5296    47.6677 C5            1 RES     
     648 C5         -39.2891    31.6224    46.8339 C5            1 RES     
     649 C5         -34.0977    35.9493    42.3198 C5            1 RES     
     650 C0         -34.2601    34.6163    41.4803 C0            1 RES     
     651 C5         -34.3321    34.9903    39.9370 C5            1 RES     
     652 C5         -35.5616    34.4737    39.1110 C5            1 RES     
     653 C5         -35.3836    33.0450    38.5207 C5            1 RES     
     654 C5         -34.4769    32.9573    37.2701 C5            1 RES     
     655 C5         -34.0981    31.5130    36.8876 C5            1 RES     
     656 C5         -35.2444    30.6589    36.3237 C5            1 RES     
     657 C5         -35.8299    31.1661    34.9915 C5            1 RES     
     658 C5         -34.7913    31.2492    33.8685 C5            1 RES     
     659 C5         -36.0775    35.5120    38.0405 C5            1 RES     
     660 C5         -35.0085    36.2059    37.1518 C5            1 RES     
     661 C5         -35.5856    37.0267    35.9766 C5            1 RES     
     662 C5         -36.4860    38.2104    36.3827 C5            1 RES     
     663 C5         -36.9866    39.0328    35.1699 C5            1 RES     
     664 C5         -35.8619    39.7890    34.4287 C5            1 RES     
     665 C5         -36.3484    40.6007    33.2129 C5            1 RES     
     666 C5         -37.2936    41.7474    33.5713 C5            1 RES     
     667 H6         -29.1049    39.8531    49.2854 H6            1 RES     
     668 H6         -27.9316    39.2820    50.5169 H6            1 RES     
     669 H6         -29.6999    39.1113    50.8277 H6            1 RES     
     670 H6         -28.0775    37.6371    48.6406 H6            1 RES     
     671 H6         -28.6280    36.9465    50.2079 H6            1 RES     
     672 H6         -30.1231    36.2105    48.4463 H6            1 RES     
     673 H6         -31.0169    37.2968    49.5698 H6            1 RES     
     674 H6         -29.8328    38.0486    46.8130 H6            1 RES     
     675 H6         -30.7474    39.1911    47.8740 H6            1 RES     
     676 H6         -31.8353    36.5591    46.7542 H6            1 RES     
     677 H6         -32.7800    37.7566    47.7258 H6            1 RES     
     678 H6         -32.3804    39.4890    45.8858 H6            1 RES     
     679 H6         -31.4632    38.2408    44.9751 H6            1 RES     
     680 H6         -34.5107    38.2235    45.5567 H6            1 RES     
     681 H6         -33.6405    38.4405    43.9909 H6            1 RES     
     682 H6         -33.7579    35.9478    45.7838 H6            1 RES     
     683 H6         -32.5885    36.1079    44.4629 H6            1 RES     
     684 H6         -34.3920    34.8041    43.8473 H6            1 RES     
     685 H6         -36.4882    36.8283    44.3713 H6            1 RES     
     686 H6         -36.7149    35.4753    43.1933 H6            1 RES     
     687 H6         -36.0384    33.8053    44.7213 H6            1 RES     
     688 H6         -35.7204    35.0569    46.0375 H6            1 RES     
     689 H6         -38.3757    33.9086    45.0555 H6            1 RES     
     690 H6         -38.1727    35.1562    46.3610 H6            1 RES     
     691 H6         -36.7242    32.3810    46.3301 H6            1 RES     
     692 H6         -36.5899    33.6481    47.5907 H6            1 RES     
     693 H6         -38.9854    33.2973    48.2053 H6            1 RES     
     694 H6         -37.8957    31.8807    48.4255 H6            1 RES     
     695 H6         -38.6801    30.8364    46.3345 H6            1 RES     
     696 H6         -39.8417    32.2051    46.0718 H6            1 RES     
     697 H6         -40.0155    31.1178    47.5064 H6            1 RES     
     698 H6         -33.0097    36.1731    42.2770 H6            1 RES     
     699 H6         -34.6266    36.8330    41.9021 H6            1 RES     
     700 H6         -34.5013    36.0837    39.9232 H6            1 RES     
     701 H6         -33.3620    34.8966    39.4099 H6            1 RES     
     702 H6         -36.4019    34.3892    39.8368 H6            1 RES     
     703 H6         -35.0029    32.3959    39.3367 H6            1 RES     
     704 H6         -36.3806    32.6510    38.2269 H6            1 RES     
     705 H6         -34.9546    33.4498    36.4019 H6            1 RES     
     706 H6         -33.5356    33.5048    37.4644 H6            1 RES     
     707 H6         -33.2794    31.5491    36.1404 H6            1 RES     
     708 H6         -33.6844    30.9920    37.7752 H6            1 RES     
     709 H6         -36.0568    30.5815    37.0763 H6            1 RES     
     710 H6         -34.8472    29.6340    36.1546 H6            1 RES     
     711 H6         -36.3075    32.1585    35.1249 H6            1 RES     
     712 H6         -36.6203    30.4515    34.6770 H6            1 RES     
     713 H6         -34.3024    30.2630    33.7172 H6            1 RES     
     714 H6         -35.2894    31.5482    32.9230 H6            1 RES     
     715 H6         -34.0174    32.0122    34.0920 H6            1 RES     
     716 H6         -36.5908    36.3342    38.5844 H6            1 RES     
     717 H6         -36.8454    35.0112    37.4117 H6            1 RES     
     718 H6         -34.3350    35.4746    36.6857 H6            1 RES     
     719 H6         -34.3709    36.8669    37.7768 H6            1 RES     
     720 H6         -34.7114    37.4129    35.4157 H6            1 RES     
     721 H6         -36.1557    36.3501    35.3021 H6            1 RES     
     722 H6         -35.9416    38.8858    37.0779 H6            1 RES     
     723 H6         -37.3765    37.8089    36.9076 H6            1 RES     
     724 H6         -37.5232    38.3644    34.4614 H6            1 RES     
     725 H6         -37.7144    39.7792    35.5568 H6            1 RES     
     726 H6         -35.1242    39.0603    34.0383 H6            1 RES     
     727 H6         -35.3404    40.4694    35.1369 H6            1 RES     
     728 H6         -35.4553    41.0441    32.7193 H6            1 RES     
     729 H6         -36.8444    39.9264    32.4820 H6            1 RES     
     730 H6         -38.2378    41.3677    34.0102 H6            1 RES     
     731 H6         -37.5495    42.3124    32.6492 H6            1 RES     
     732 H6         -36.8038    42.4431    34.2852 H6            1 RES     
     733 C0         -34.5834    35.2584    54.5908 C0            1 RES     
     734 C0         -33.7449    34.6693    55.7961 C0            1 RES     
     735 C0         -32.5309    34.2399    55.3773 C0            1 RES     
     736 S1         -31.5575    33.6339    56.6028 S1            1 RES     
     737 C0         -32.7209    33.9216    57.8074 C0            1 RES     
     738 C0         -33.8792    34.4112    57.1867 C0            1 RES     
     739 C0         -32.4467    34.3542    53.9687 C0            1 RES     
     740 C0         -33.5597    34.8832    53.5136 C0            1 RES     
     741 C0         -33.6058    34.8267    52.0794 C0            1 RES     
     742 C0         -32.4788    34.2189    51.5567 C0            1 RES     
     743 S1         -31.2532    33.7481    52.7900 S1            1 RES     
     744 H2         -34.7505    34.6040    57.7572 H2            1 RES     
     745 H2         -34.4504    35.0829    51.5126 H2            1 RES     
     746 N3         -33.2851    34.2784    61.5486 N3            1 RES     
     747 C0         -33.4773    34.3144    60.2000 C0            1 RES     
     748 C0         -32.5221    33.7824    59.2936 C0            1 RES     
     749 C0         -31.3710    33.2028    59.8696 C0            1 RES     
     750 N3         -30.3548    32.6394    59.1658 N3            1 RES     
     751 S1         -29.3222    32.1477    60.3566 S1            1 RES     
     752 N3         -30.0714    32.6102    61.7503 N3            1 RES     
     753 C0         -31.2125    33.1852    61.2865 C0            1 RES     
     754 C0         -32.1795    33.7323    62.1116 C0            1 RES     
     755 H4         -34.3686    34.7930    59.8506 H4            1 RES     
     756 C5         -27.7428    38.1010    62.6529 C5            1 RES     
     757 C5         -28.1014    36.9179    61.7538 C5            1 RES     
     758 C5         -29.5808    36.9052    61.3331 C5            1 RES     
     759 C5         -29.9691    38.0881    60.4272 C5            1 RES     
     760 C5         -31.4443    37.9962    60.0081 C5            1 RES     
     761 C5         -31.8070    39.0916    58.9813 C5            1 RES     
     762 C5         -33.2674    39.0404    58.4585 C5            1 RES     
     763 C5         -33.6194    37.6341    57.9704 C5            1 RES     
     764 C5         -34.8565    37.4740    57.0513 C5            1 RES     
     765 C5         -36.2997    37.6718    57.6566 C5            1 RES     
     766 C5         -36.5774    36.4308    58.5496 C5            1 RES     
     767 C5         -37.8562    36.0909    59.3242 C5            1 RES     
     768 C5         -37.5541    34.7117    59.9978 C5            1 RES     
     769 C5         -38.6451    34.0781    60.8592 C5            1 RES     
     770 C5         -39.8276    33.5664    60.0461 C5            1 RES     
     771 C5         -34.5565    37.8638    55.5967 C5            1 RES     
     772 C0         -35.1222    36.8181    54.5505 C0            1 RES     
     773 C5         -35.3398    37.5546    53.1588 C5            1 RES     
     774 C5         -36.7595    37.4725    52.4966 C5            1 RES     
     775 C5         -36.9801    36.2165    51.6048 C5            1 RES     
     776 C5         -36.3079    36.2710    50.2124 C5            1 RES     
     777 C5         -36.3073    34.9156    49.4784 C5            1 RES     
     778 C5         -37.6800    34.4342    48.9831 C5            1 RES     
     779 C5         -38.3338    35.3378    47.9198 C5            1 RES     
     780 C5         -37.4790    35.5021    46.6592 C5            1 RES     
     781 C5         -37.1939    38.8092    51.7791 C5            1 RES     
     782 C5         -36.1445    39.4962    50.8620 C5            1 RES     
     783 C5         -36.7000    40.6606    50.0114 C5            1 RES     
     784 C5         -37.2565    41.8527    50.8150 C5            1 RES     
     785 C5         -37.7433    43.0143    49.9141 C5            1 RES     
     786 C5         -36.6052    43.7159    49.1406 C5            1 RES     
     787 C5         -37.0810    44.8655    48.2319 C5            1 RES     
     788 C5         -37.6958    46.0415    48.9907 C5            1 RES     
     789 H6         -27.8720    39.0647    62.1207 H6            1 RES     
     790 H6         -26.6792    38.0211    62.9616 H6            1 RES     
     791 H6         -28.3774    38.0938    63.5646 H6            1 RES     
     792 H6         -27.4487    36.9207    60.8534 H6            1 RES     
     793 H6         -27.8964    35.9850    62.3232 H6            1 RES     
     794 H6         -29.7576    35.9620    60.7690 H6            1 RES     
     795 H6         -30.2228    36.8896    62.2403 H6            1 RES     
     796 H6         -29.3257    38.0554    59.5194 H6            1 RES     
     797 H6         -29.8081    39.0552    60.9461 H6            1 RES     
     798 H6         -31.5865    36.9969    59.5440 H6            1 RES     
     799 H6         -32.0994    38.0757    60.9018 H6            1 RES     
     800 H6         -31.6150    40.0981    59.4112 H6            1 RES     
     801 H6         -31.1306    38.9612    58.1068 H6            1 RES     
     802 H6         -33.9912    39.3401    59.2464 H6            1 RES     
     803 H6         -33.3359    39.7670    57.6203 H6            1 RES     
     804 H6         -33.7171    36.9800    58.8569 H6            1 RES     
     805 H6         -32.7487    37.2420    57.3968 H6            1 RES     
     806 H6         -34.8598    36.4583    56.8865 H6            1 RES     
     807 H6         -36.3741    38.6350    58.2039 H6            1 RES     
     808 H6         -37.0561    37.6617    56.8410 H6            1 RES     
     809 H6         -36.5341    35.5846    57.8383 H6            1 RES     
     810 H6         -35.7651    36.4121    59.2957 H6            1 RES     
     811 H6         -38.7197    36.0132    58.6287 H6            1 RES     
     812 H6         -38.0642    36.8596    60.0970 H6            1 RES     
     813 H6         -37.2631    33.9617    59.2246 H6            1 RES     
     814 H6         -36.6764    34.8494    60.6670 H6            1 RES     
     815 H6         -38.9739    34.7877    61.6453 H6            1 RES     
     816 H6         -38.1918    33.1910    61.3593 H6            1 RES     
     817 H6         -39.4813    32.8273    59.2897 H6            1 RES     
     818 H6         -40.3493    34.4009    59.5390 H6            1 RES     
     819 H6         -40.5376    33.0517    60.7284 H6            1 RES     
     820 H6         -33.4644    37.8973    55.3924 H6            1 RES     
     821 H6         -34.9401    38.9000    55.4770 H6            1 RES     
     822 H6         -35.2715    38.6322    53.4006 H6            1 RES     
     823 H6         -34.5009    37.4204    52.4475 H6            1 RES     
     824 H6         -37.4817    37.3665    53.3374 H6            1 RES     
     825 H6         -36.6306    35.3358    52.1831 H6            1 RES     
     826 H6         -38.0704    36.0844    51.4338 H6            1 RES     
     827 H6         -36.7922    37.0314    49.5707 H6            1 RES     
     828 H6         -35.2532    36.5831    50.3296 H6            1 RES     
     829 H6         -35.6193    34.9842    48.6113 H6            1 RES     
     830 H6         -35.8880    34.1345    50.1452 H6            1 RES     
     831 H6         -38.3700    34.3237    49.8458 H6            1 RES     
     832 H6         -37.5405    33.4256    48.5360 H6            1 RES     
     833 H6         -38.5633    36.3379    48.3414 H6            1 RES     
     834 H6         -39.2962    34.8682    47.6240 H6            1 RES     
     835 H6         -37.2400    34.5102    46.2194 H6            1 RES     
     836 H6         -38.0357    36.0996    45.9078 H6            1 RES     
     837 H6         -36.5356    36.0425    46.8805 H6            1 RES     
     838 H6         -37.4335    39.5554    52.5671 H6            1 RES     
     839 H6         -38.1353    38.6146    51.2208 H6            1 RES     
     840 H6         -35.7193    38.7901    50.1364 H6            1 RES     
     841 H6         -35.2953    39.8676    51.4741 H6            1 RES     
     842 H6         -35.8561    41.0097    49.3838 H6            1 RES     
     843 H6         -37.4948    40.2742    49.3356 H6            1 RES     
     844 H6         -36.4838    42.2376    51.5155 H6            1 RES     
     845 H6         -38.1248    41.5004    51.4081 H6            1 RES     
     846 H6         -38.5090    42.6379    49.2008 H6            1 RES     
     847 H6         -38.2295    43.7630    50.5771 H6            1 RES     
     848 H6         -36.1061    42.9833    48.4759 H6            1 RES     
     849 H6         -35.8516    44.1065    49.8589 H6            1 RES     
     850 H6         -36.1967    45.2500    47.6769 H6            1 RES     
     851 H6         -37.8121    44.4817    47.4881 H6            1 RES     
     852 H6         -38.6239    45.7398    49.5160 H6            1 RES     
     853 H6         -37.9584    46.8452    48.2696 H6            1 RES     
     854 H6         -36.9687    46.4509    49.7237 H6            1 RES     
     855 C0         -33.3607    34.3737    67.3303 C0            1 RES     
     856 C0         -32.4989    33.3777    68.2067 C0            1 RES     
     857 C0         -31.4802    32.8544    67.4843 C0            1 RES     
     858 S1         -30.4887    31.8137    68.3508 S1            1 RES     
     859 C0         -31.3728    32.0062    69.7890 C0            1 RES     
     860 C0         -32.4783    32.8242    69.5151 C0            1 RES     
     861 C0         -31.5825    33.2834    66.1391 C0            1 RES     
     862 C0         -32.6115    34.0918    66.0233 C0            1 RES     
     863 C0         -32.8800    34.3866    64.6437 C0            1 RES     
     864 C0         -31.9987    33.7327    63.8019 C0            1 RES     
     865 S1         -30.7336    32.7754    64.6550 S1            1 RES     
     866 H2         -33.1943    33.0256    70.2692 H2            1 RES     
     867 H2         -33.7245    34.9140    64.3138 H2            1 RES     
     868 N3         -31.2888    31.5572    73.5618 N3            1 RES     
     869 C0         -31.6659    31.9457    72.3113 C0            1 RES     
     870 C0         -30.9910    31.4853    71.1494 C0            1 RES     
     871 C0         -29.9182    30.5932    71.3636 C0            1 RES     
     872 N3         -29.1613    30.0441    70.3783 N3            1 RES     
     873 S1         -28.0933    29.1107    71.2233 S1            1 RES     
     874 N3         -28.5121    29.3527    72.7993 N3            1 RES     
     875 C0         -29.5596    30.2120    72.6899 C0            1 RES     
     876 C0         -30.2547    30.7081    73.7790 C0            1 RES     
     877 H4         -32.4759    32.6420    72.2442 H4            1 RES     
     878 C5         -24.9568    33.9767    74.3366 C5            1 RES     
     879 C5         -25.6886    33.1227    73.3013 C5            1 RES     
     880 C5         -27.1822    33.4696    73.1788 C5            1 RES     
     881 C5         -27.4381    34.8830    72.6243 C5            1 RES     
     882 C5         -28.9443    35.1530    72.4862 C5            1 RES     
     883 C5         -29.2121    36.5071    71.7930 C5            1 RES     
     884 C5         -30.7104    36.8381    71.5609 C5            1 RES     
     885 C5         -31.4229    35.6720    70.8736 C5            1 RES     
     886 C5         -32.7875    35.9540    70.1960 C5            1 RES     
     887 C5         -34.0496    36.2519    71.0943 C5            1 RES     
     888 C5         -34.4510    34.9027    71.7524 C5            1 RES     
     889 C5         -35.6442    34.6178    72.6722 C5            1 RES     
     890 C5         -35.5477    33.0871    72.9803 C5            1 RES     
     891 C5         -36.6094    32.4682    73.8877 C5            1 RES     
     892 C5         -37.9808    32.3795    73.2298 C5            1 RES     
     893 C5         -32.6294    36.6195    68.8212 C5            1 RES     
     894 C0         -33.5537    35.9678    67.7125 C0            1 RES     
     895 C5         -33.8120    37.0403    66.5680 C5            1 RES     
     896 C5         -35.2983    37.3678    66.1879 C5            1 RES     
     897 C5         -35.9115    36.4182    65.1185 C5            1 RES     
     898 C5         -35.4564    36.6833    63.6637 C5            1 RES     
     899 C5         -35.8538    35.5625    62.6831 C5            1 RES     
     900 C5         -37.3555    35.4606    62.3730 C5            1 RES     
     901 C5         -37.9508    36.6910    61.6615 C5            1 RES     
     902 C5         -37.2764    36.9978    60.3206 C5            1 RES     
     903 C5         -35.5381    38.8915    65.8545 C5            1 RES     
     904 C5         -34.5135    39.5819    64.9125 C5            1 RES     
     905 C5         -34.9267    40.9938    64.4395 C5            1 RES     
     906 C5         -35.0906    42.0394    65.5604 C5            1 RES     
     907 C5         -35.4455    43.4485    65.0253 C5            1 RES     
     908 C5         -34.3107    44.1033    64.2071 C5            1 RES     
     909 C5         -34.6588    45.5009    63.6599 C5            1 RES     
     910 C5         -34.8891    46.5519    64.7458 C5            1 RES     
     911 H6         -24.9542    35.0466    74.0465 H6            1 RES     
     912 H6         -23.9011    33.6408    74.4126 H6            1 RES     
     913 H6         -25.4364    33.8644    75.3321 H6            1 RES     
     914 H6         -25.1908    33.2250    72.3123 H6            1 RES     
     915 H6         -25.6060    32.0602    73.6189 H6            1 RES     
     916 H6         -27.6378    32.7334    72.4792 H6            1 RES     
     917 H6         -27.6714    33.3515    74.1697 H6            1 RES     
     918 H6         -26.9579    34.9547    71.6226 H6            1 RES     
     919 H6         -26.9994    35.6555    73.2884 H6            1 RES     
     920 H6         -29.3636    34.3334    71.8646 H6            1 RES     
     921 H6         -29.4278    35.1314    73.4862 H6            1 RES     
     922 H6         -28.7481    37.3330    72.3738 H6            1 RES     
     923 H6         -28.7159    36.4718    70.7971 H6            1 RES     
     924 H6         -31.2290    37.0640    72.5173 H6            1 RES     
     925 H6         -30.7451    37.7434    70.9172 H6            1 RES     
     926 H6         -31.5262    34.8536    71.6103 H6            1 RES     
     927 H6         -30.7507    35.2811    70.0761 H6            1 RES     
     928 H6         -33.0322    35.0232    69.8317 H6            1 RES     
     929 H6         -33.8348    37.0552    71.8300 H6            1 RES     
     930 H6         -34.9026    36.5685    70.4544 H6            1 RES     
     931 H6         -34.6951    34.2556    70.8890 H6            1 RES     
     932 H6         -33.5605    34.5654    72.3090 H6            1 RES     
     933 H6         -36.5974    34.8600    72.1544 H6            1 RES     
     934 H6         -35.5666    35.2051    73.6106 H6            1 RES     
     935 H6         -35.5412    32.5032    72.0295 H6            1 RES     
     936 H6         -34.5719    32.9061    73.4823 H6            1 RES     
     937 H6         -36.6592    33.0170    74.8499 H6            1 RES     
     938 H6         -36.2873    31.4224    74.1003 H6            1 RES     
     939 H6         -37.9160    31.7923    72.2867 H6            1 RES     
     940 H6         -38.3811    33.3886    73.0129 H6            1 RES     
     941 H6         -38.6756    31.8499    73.9163 H6            1 RES     
     942 H6         -31.5978    36.5087    68.4223 H6            1 RES     
     943 H6         -32.7961    37.7051    68.9908 H6            1 RES     
     944 H6         -33.4801    38.0005    67.0063 H6            1 RES     
     945 H6         -33.1356    36.9342    65.6968 H6            1 RES     
     946 H6         -35.8942    37.1932    67.1122 H6            1 RES     
     947 H6         -35.6768    35.3781    65.4273 H6            1 RES     
     948 H6         -37.0178    36.5235    65.1367 H6            1 RES     
     949 H6         -35.8563    37.6471    63.2954 H6            1 RES     
     950 H6         -34.3539    36.7690    63.6374 H6            1 RES     
     951 H6         -35.3029    35.7136    61.7326 H6            1 RES     
     952 H6         -35.5174    34.5844    63.0838 H6            1 RES     
     953 H6         -37.9179    35.2709    63.3112 H6            1 RES     
     954 H6         -37.5023    34.5787    61.7117 H6            1 RES     
     955 H6         -37.8963    37.5866    62.3139 H6            1 RES     
     956 H6         -39.0242    36.4811    61.4666 H6            1 RES     
     957 H6         -37.3225    36.1127    59.6506 H6            1 RES     
     958 H6         -37.7973    37.8447    59.8277 H6            1 RES     
     959 H6         -36.2171    37.2963    60.4621 H6            1 RES     
     960 H6         -35.4936    39.4592    66.8090 H6            1 RES     
     961 H6         -36.5713    39.0029    65.4595 H6            1 RES     
     962 H6         -34.3608    39.0052    63.9905 H6            1 RES     
     963 H6         -33.5235    39.6426    65.4128 H6            1 RES     
     964 H6         -34.1298    41.3287    63.7460 H6            1 RES     
     965 H6         -35.8765    40.9243    63.8644 H6            1 RES     
     966 H6         -34.1587    42.1054    66.1629 H6            1 RES     
     967 H6         -35.9167    41.7139    66.2247 H6            1 RES     
     968 H6         -36.3707    43.3924    64.4108 H6            1 RES     
     969 H6         -35.6571    44.0915    65.9075 H6            1 RES     
     970 H6         -34.0836    43.4738    63.3240 H6            1 RES     
     971 H6         -33.3935    44.1739    64.8316 H6            1 RES     
     972 H6         -33.8047    45.8452    63.0356 H6            1 RES     
     973 H6         -35.5566    45.4388    63.0079 H6            1 RES     
     974 H6         -35.7722    46.3014    65.3668 H6            1 RES     
     975 H6         -35.0774    47.5371    64.2674 H6            1 RES     
     976 H6         -33.9912    46.6416    65.3933 H6            1 RES     
     977 C0         -30.4875    30.2881    79.1467 C0            1 RES     
     978 C0         -29.7387    28.9773    79.6200 C0            1 RES     
     979 C0         -28.9734    28.4705    78.6244 C0            1 RES     
     980 S1         -28.1104    27.0968    79.0542 S1            1 RES     
     981 C0         -28.7106    27.0938    80.6439 C0            1 RES     
     982 C0         -29.6438    28.1341    80.7595 C0            1 RES     
     983 C0         -29.1792    29.2180    77.4398 C0            1 RES     
     984 C0         -30.0172    30.1980    77.6907 C0            1 RES     
     985 C0         -30.4173    30.8544    76.4777 C0            1 RES     
     986 C0         -29.8303    30.2753    75.3673 C0            1 RES     
     987 S1         -28.6872    28.9364    75.7487 S1            1 RES     
     988 H2         -30.1808    28.2727    81.6619 H2            1 RES     
     989 H2         -31.1689    31.5846    76.4303 H2            1 RES     
     990 N3         -28.1682    25.7539    84.1585 N3            1 RES     
     991 C0         -28.6340    26.4881    83.1094 C0            1 RES     
     992 C0         -28.2523    26.2061    81.7707 C0            1 RES     
     993 C0         -27.3753    25.1150    81.5889 C0            1 RES     
     994 N3         -26.9072    24.6919    80.3859 N3            1 RES     
     995 S1         -25.9506    23.4123    80.8023 S1            1 RES     
     996 N3         -26.0705    23.3425    82.4449 N3            1 RES     
     997 C0         -26.9146    24.3730    82.7159 C0            1 RES     
     998 C0         -27.3190    24.7099    83.9958 C0            1 RES     
     999 H4         -29.2773    27.3112    83.3422 H4            1 RES     
    1000 C5         -21.4221    26.7728    84.1798 C5            1 RES     
    1001 C5         -22.4642    26.3309    83.1525 C5            1 RES     
    1002 C5         -23.8504    26.9530    83.3920 C5            1 RES     
    1003 C5         -23.8775    28.4800    83.1965 C5            1 RES     
    1004 C5         -25.2946    29.0345    83.4079 C5            1 RES     
    1005 C5         -25.3662    30.5398    83.0693 C5            1 RES     
    1006 C5         -26.7766    31.1736    83.2014 C5            1 RES     
    1007 C5         -27.8154    30.3475    82.4409 C5            1 RES     
    1008 C5         -29.1730    31.0168    82.1096 C5            1 RES     
    1009 C5         -30.1954    31.3091    83.2748 C5            1 RES     
    1010 C5         -30.7742    29.9339    83.7090 C5            1 RES     
    1011 C5         -31.8514    29.6522    84.7632 C5            1 RES     
    1012 C5         -32.0398    28.0996    84.7288 C5            1 RES     
    1013 C5         -33.0633    27.4785    85.6778 C5            1 RES     
    1014 C5         -34.5037    27.7902    85.2912 C5            1 RES     
    1015 C5         -29.0811    31.9516    80.8948 C5            1 RES     
    1016 C0         -30.2767    31.7542    79.8751 C0            1 RES     
    1017 C5         -30.4660    33.0960    79.0441 C5            1 RES     
    1018 C5         -31.8874    33.7594    79.0310 C5            1 RES     
    1019 C5         -32.8404    33.2135    77.9287 C5            1 RES     
    1020 C5         -32.5592    33.7328    76.4986 C5            1 RES     
    1021 C5         -33.3273    32.9644    75.4053 C5            1 RES     
    1022 C5         -34.8450    33.2036    75.3750 C5            1 RES     
    1023 C5         -35.2621    34.6525    75.0565 C5            1 RES     
    1024 C5         -34.7433    35.1461    73.7022 C5            1 RES     
    1025 C5         -31.8426    35.3364    79.0671 C5            1 RES     
    1026 C5         -30.8448    36.0405    78.1065 C5            1 RES     
    1027 C5         -31.0119    37.5742    78.0191 C5            1 RES     
    1028 C5         -30.7812    38.3357    79.3396 C5            1 RES     
    1029 C5         -30.9019    39.8713    79.1807 C5            1 RES     
    1030 C5         -29.7870    40.4926    78.3107 C5            1 RES     
    1031 C5         -29.9053    42.0189    78.1366 C5            1 RES     
    1032 C5         -29.7426    42.8055    79.4372 C5            1 RES     
    1033 H6         -21.2338    27.8635    84.1186 H6            1 RES     
    1034 H6         -20.4632    26.2489    83.9818 H6            1 RES     
    1035 H6         -21.7622    26.5130    85.2048 H6            1 RES     
    1036 H6         -22.1077    26.5764    82.1282 H6            1 RES     
    1037 H6         -22.5645    25.2258    83.2252 H6            1 RES     
    1038 H6         -24.5511    26.4955    82.6579 H6            1 RES     
    1039 H6         -24.2017    26.6905    84.4133 H6            1 RES     
    1040 H6         -23.5464    28.7024    82.1572 H6            1 RES     
    1041 H6         -23.1906    28.9835    83.9071 H6            1 RES     
    1042 H6         -25.9665    28.4725    82.7247 H6            1 RES     
    1043 H6         -25.6185    28.8609    84.4563 H6            1 RES     
    1044 H6         -24.6559    31.1098    83.7060 H6            1 RES     
    1045 H6         -25.0417    30.6558    82.0107 H6            1 RES     
    1046 H6         -27.0879    31.2531    84.2651 H6            1 RES     
    1047 H6         -26.7118    32.1976    82.7743 H6            1 RES     
    1048 H6         -27.9812    29.4086    83.0014 H6            1 RES     
    1049 H6         -27.3676    30.0458    81.4666 H6            1 RES     
    1050 H6         -29.6620    30.2569    81.6173 H6            1 RES     
    1051 H6         -29.7076    31.8642    84.1035 H6            1 RES     
    1052 H6         -31.0460    31.9130    82.8886 H6            1 RES     
    1053 H6         -31.2757    29.5635    82.7952 H6            1 RES     
    1054 H6         -29.9040    29.3235    84.0039 H6            1 RES     
    1055 H6         -32.7966    30.1735    84.4982 H6            1 RES     
    1056 H6         -31.5124    29.9768    85.7687 H6            1 RES     
    1057 H6         -32.2987    27.7664    83.6959 H6            1 RES     
    1058 H6         -31.0620    27.6365    84.9868 H6            1 RES     
    1059 H6         -32.8520    27.7831    86.7229 H6            1 RES     
    1060 H6         -32.9444    26.3725    85.6073 H6            1 RES     
    1061 H6         -34.7059    27.4419    84.2539 H6            1 RES     
    1062 H6         -34.7067    28.8760    85.3652 H6            1 RES     
    1063 H6         -35.1864    27.2428    85.9759 H6            1 RES     
    1064 H6         -28.1676    31.7599    80.2913 H6            1 RES     
    1065 H6         -28.9851    32.9778    81.3105 H6            1 RES     
    1066 H6         -29.8756    33.8512    79.5967 H6            1 RES     
    1067 H6         -29.9642    33.0831    78.0563 H6            1 RES     
    1068 H6         -32.3637    33.4774    79.9972 H6            1 RES     
    1069 H6         -32.7905    32.1053    77.9685 H6            1 RES     
    1070 H6         -33.8836    33.5036    78.1799 H6            1 RES     
    1071 H6         -32.7938    34.8112    76.4179 H6            1 RES     
    1072 H6         -31.4801    33.6278    76.2793 H6            1 RES     
    1073 H6         -32.9034    33.2381    74.4178 H6            1 RES     
    1074 H6         -33.1523    31.8758    75.5264 H6            1 RES     
    1075 H6         -35.2901    32.8980    76.3450 H6            1 RES     
    1076 H6         -35.2730    32.5439    74.5887 H6            1 RES     
    1077 H6         -34.9217    35.3438    75.8547 H6            1 RES     
    1078 H6         -36.3722    34.6862    75.0326 H6            1 RES     
    1079 H6         -35.0759    34.4676    72.8877 H6            1 RES     
    1080 H6         -35.1381    36.1635    73.5013 H6            1 RES     
    1081 H6         -33.6357    35.2122    73.6955 H6            1 RES     
    1082 H6         -31.5374    35.6444    80.0904 H6            1 RES     
    1083 H6         -32.8749    35.7177    78.9088 H6            1 RES     
    1084 H6         -30.9568    35.6818    77.0747 H6            1 RES     
    1085 H6         -29.8019    35.8063    78.4093 H6            1 RES     
    1086 H6         -30.2733    37.9194    77.2686 H6            1 RES     
    1087 H6         -32.0289    37.8108    77.6351 H6            1 RES     
    1088 H6         -29.7782    38.0925    79.7526 H6            1 RES     
    1089 H6         -31.5504    38.0116    80.0696 H6            1 RES     
    1090 H6         -31.8981    40.1256    78.7568 H6            1 RES     
    1091 H6         -30.8385    40.3131    80.1992 H6            1 RES     
    1092 H6         -29.8326    40.0611    77.2911 H6            1 RES     
    1093 H6         -28.7939    40.2510    78.7486 H6            1 RES     
    1094 H6         -29.0991    42.3466    77.4434 H6            1 RES     
    1095 H6         -30.8818    42.2717    77.6703 H6            1 RES     
    1096 H6         -30.5573    42.5732    80.1519 H6            1 RES     
    1097 H6         -29.7846    43.8934    79.2145 H6            1 RES     
    1098 H6         -28.7608    42.5801    79.9048 H6            1 RES     
    1099 C0         -26.8407    23.0743    89.1084 C0            1 RES     
    1100 C0         -26.3278    21.5783    89.1523 C0            1 RES     
    1101 C0         -25.8442    21.1967    87.9465 C0            1 RES     
    1102 S1         -25.2408    19.6308    87.9140 S1            1 RES     
    1103 C0         -25.5863    19.3555    89.5547 C0            1 RES     
    1104 C0         -26.2481    20.4854    90.0565 C0            1 RES     
    1105 C0         -26.0581    22.2282    87.0008 C0            1 RES     
    1106 C0         -26.6209    23.2518    87.6019 C0            1 RES     
    1107 C0         -27.0461    24.2371    86.6477 C0            1 RES     
    1108 C0         -26.7671    23.8448    85.3512 C0            1 RES     
    1109 S1         -25.8930    22.2748    85.2255 S1            1 RES     
    1110 H2         -26.6037    20.4975    91.0542 H2            1 RES     
    1111 H2         -27.6229    25.0776    86.8951 H2            1 RES     
    1112 N3         -24.8297    17.1454    92.5523 N3            1 RES     
    1113 C0         -25.2776    18.1777    91.7838 C0            1 RES     
    1114 C0         -25.1670    18.1594    90.3679 C0            1 RES     
    1115 C0         -24.5801    17.0065    89.8031 C0            1 RES     
    1116 N3         -24.3962    16.8061    88.4722 N3            1 RES     
    1117 S1         -23.6844    15.3170    88.4279 S1            1 RES     
    1118 N3         -23.5725    14.8811    90.0138 N3            1 RES     
    1119 C0         -24.1274    15.9491    90.6456 C0            1 RES     
    1120 C0         -24.2568    16.0378    92.0206 C0            1 RES     
    1121 H4         -25.6885    19.0215    92.2983 H4            1 RES     
    1122 C5         -18.0943    16.9325    91.4856 C5            1 RES     
    1123 C5         -19.3469    16.9368    90.6093 C5            1 RES     
    1124 C5         -20.5172    17.7170    91.2319 C5            1 RES     
    1125 C5         -20.2458    19.2273    91.3601 C5            1 RES     
    1126 C5         -21.4646    19.9550    91.9479 C5            1 RES     
    1127 C5         -21.2620    21.4862    91.9430 C5            1 RES     
    1128 C5         -22.4691    22.3074    92.4694 C5            1 RES     
    1129 C5         -23.7611    21.8806    91.7705 C5            1 RES     
    1130 C5         -24.9780    22.8366    91.8491 C5            1 RES     
    1131 C5         -25.7307    23.0180    93.2235 C5            1 RES     
    1132 C5         -26.5194    21.7023    93.4716 C5            1 RES     
    1133 C5         -27.4641    21.3713    94.6330 C5            1 RES     
    1134 C5         -27.9829    19.9290    94.3201 C5            1 RES     
    1135 C5         -28.9638    19.2894    95.3012 C5            1 RES     
    1136 C5         -30.3453    19.9313    95.2699 C5            1 RES     
    1137 C5         -24.8690    24.0022    90.8554 C5            1 RES     
    1138 C0         -26.2163    24.2652    90.0657 C0            1 RES     
    1139 C5         -26.2351    25.7777    89.5773 C5            1 RES     
    1140 C5         -27.4678    26.6636    89.9725 C5            1 RES     
    1141 C5         -28.6676    26.5708    88.9860 C5            1 RES     
    1142 C5         -28.4963    27.3574    87.6647 C5            1 RES     
    1143 C5         -29.5637    27.0175    86.6060 C5            1 RES     
    1144 C5         -30.9827    27.5190    86.9168 C5            1 RES     
    1145 C5         -31.1228    29.0520    86.9860 C5            1 RES     
    1146 C5         -30.7164    29.7545    85.6866 C5            1 RES     
    1147 C5         -27.0822    28.1540    90.3195 C5            1 RES     
    1148 C5         -26.1100    28.8802    89.3491 C5            1 RES     
    1149 C5         -25.9566    30.3956    89.6094 C5            1 RES     
    1150 C5         -25.3761    30.7691    90.9879 C5            1 RES     
    1151 C5         -25.1879    32.2952    91.1711 C5            1 RES     
    1152 C5         -24.1070    32.9002    90.2483 C5            1 RES     
    1153 C5         -23.9208    34.4206    90.4145 C5            1 RES     
    1154 C5         -23.4035    34.8347    91.7921 C5            1 RES     
    1155 H6         -17.6885    17.9562    91.6127 H6            1 RES     
    1156 H6         -17.3096    16.3111    91.0049 H6            1 RES     
    1157 H6         -18.3269    16.5004    92.4821 H6            1 RES     
    1158 H6         -19.1014    17.3523    89.6075 H6            1 RES     
    1159 H6         -19.6691    15.8813    90.4735 H6            1 RES     
    1160 H6         -21.3999    17.5771    90.5684 H6            1 RES     
    1161 H6         -20.7617    17.2851    92.2263 H6            1 RES     
    1162 H6         -20.0321    19.6286    90.3441 H6            1 RES     
    1163 H6         -19.3700    19.4192    92.0131 H6            1 RES     
    1164 H6         -22.3344    19.6979    91.3066 H6            1 RES     
    1165 H6         -21.6596    19.5968    92.9813 H6            1 RES     
    1166 H6         -20.3603    21.7551    92.5339 H6            1 RES     
    1167 H6         -21.0802    21.7917    90.8880 H6            1 RES     
    1168 H6         -22.5956    22.1852    93.5665 H6            1 RES     
    1169 H6         -22.2507    23.3759    92.2553 H6            1 RES     
    1170 H6         -24.0391    20.8794    92.1493 H6            1 RES     
    1171 H6         -23.5371    21.7454    90.6878 H6            1 RES     
    1172 H6         -25.6853    22.3131    91.3156 H6            1 RES     
    1173 H6         -25.0187    23.2662    94.0385 H6            1 RES     
    1174 H6         -26.4801    23.8357    93.1388 H6            1 RES     
    1175 H6         -27.2178    21.6533    92.6151 H6            1 RES     
    1176 H6         -25.7660    20.8966    93.4635 H6            1 RES     
    1177 H6         -28.3046    22.0979    94.6660 H6            1 RES     
    1178 H6         -26.9188    21.3833    95.5994 H6            1 RES     
    1179 H6         -28.4567    19.9014    93.3103 H6            1 RES     
    1180 H6         -27.0996    19.2541    94.2859 H6            1 RES     
    1181 H6         -28.5403    19.2951    96.3260 H6            1 RES     
    1182 H6         -29.0957    18.2286    94.9856 H6            1 RES     
    1183 H6         -30.7682    19.8804    94.2419 H6            1 RES     
    1184 H6         -30.2983    20.9867    95.6009 H6            1 RES     
    1185 H6         -31.0204    19.3652    95.9469 H6            1 RES     
    1186 H6         -24.1168    23.8024    90.0617 H6            1 RES     
    1187 H6         -24.4955    24.8671    91.4450 H6            1 RES     
    1188 H6         -25.4219    26.2647    90.1482 H6            1 RES     
    1189 H6         -25.8991    25.9122    88.5300 H6            1 RES     
    1190 H6         -27.8453    26.2481    90.9342 H6            1 RES     
    1191 H6         -28.8503    25.4938    88.7890 H6            1 RES     
    1192 H6         -29.5759    26.9709    89.4863 H6            1 RES     
    1193 H6         -28.5043    28.4480    87.8517 H6            1 RES     
    1194 H6         -27.5090    27.1203    87.2257 H6            1 RES     
    1195 H6         -29.2417    27.4393    85.6323 H6            1 RES     
    1196 H6         -29.6094    25.9179    86.4671 H6            1 RES     
    1197 H6         -31.3345    27.0745    87.8713 H6            1 RES     
    1198 H6         -31.6530    27.1503    86.1098 H6            1 RES     
    1199 H6         -30.5285    29.4633    87.8277 H6            1 RES     
    1200 H6         -32.1912    29.2843    87.1830 H6            1 RES     
    1201 H6         -31.3029    29.3580    84.8304 H6            1 RES     
    1202 H6         -30.9099    30.8435    85.7766 H6            1 RES     
    1203 H6         -29.6337    29.6253    85.4812 H6            1 RES     
    1204 H6         -26.5705    28.1517    91.3061 H6            1 RES     
    1205 H6         -28.0210    28.7367    90.4432 H6            1 RES     
    1206 H6         -26.4473    28.8022    88.3070 H6            1 RES     
    1207 H6         -25.1083    28.4019    89.3921 H6            1 RES     
    1208 H6         -25.2804    30.7744    88.8174 H6            1 RES     
    1209 H6         -26.9449    30.8909    89.4841 H6            1 RES     
    1210 H6         -24.3985    30.2629    91.1425 H6            1 RES     
    1211 H6         -26.0803    30.4207    91.7704 H6            1 RES     
    1212 H6         -26.1581    32.8133    91.0070 H6            1 RES     
    1213 H6         -24.8818    32.4643    92.2267 H6            1 RES     
    1214 H6         -24.3938    32.7382    89.1904 H6            1 RES     
    1215 H6         -23.1349    32.3915    90.4290 H6            1 RES     
    1216 H6         -23.1746    34.7573    89.6610 H6            1 RES     
    1217 H6         -24.8787    34.9439    90.2057 H6            1 RES     
    1218 H6         -24.1343    34.5857    92.5873 H6            1 RES     
    1219 H6         -23.2445    35.9344    91.8078 H6            1 RES     
    1220 H6         -22.4345    34.3364    92.0067 H6            1 RES     
    1221 C0         -23.3893    13.1768    96.5044 C0            1 RES     
    1222 C0         -23.2072    11.6472    96.1437 C0            1 RES     
    1223 C0         -22.9999    11.4843    94.8155 C0            1 RES     
    1224 S1         -22.7567     9.8903    94.3498 S1            1 RES     
    1225 C0         -22.9068     9.2979    95.9354 C0            1 RES     
    1226 C0         -23.2303    10.3742    96.7741 C0            1 RES     
    1227 C0         -23.1257    12.7320    94.1586 C0            1 RES     
    1228 C0         -23.3616    13.6658    95.0521 C0            1 RES     
    1229 C0         -23.7026    14.9083    94.4181 C0            1 RES     
    1230 C0         -23.7085    14.7926    93.0399 C0            1 RES     
    1231 S1         -23.2185    13.1693    92.4320 S1            1 RES     
    1232 H2         -23.4237    10.2110    97.8026 H2            1 RES     
    1233 H2         -24.0434    15.7537    94.9373 H2            1 RES     
    1234 N3         -22.2057     6.3417    98.2182 N3            1 RES     
    1235 C0         -22.5311     7.5890    97.7765 C0            1 RES     
    1236 C0         -22.6373     7.8885    96.3922 C0            1 RES     
    1237 C0         -22.4005     6.8184    95.5026 C0            1 RES     
    1238 N3         -22.4623     6.9108    94.1488 N3            1 RES     
    1239 S1         -22.0996     5.3740    93.6666 S1            1 RES     
    1240 N3         -21.8505     4.5611    95.0790 N3            1 RES     
    1241 C0         -22.0647     5.5287    96.0094 C0            1 RES     
    1242 C0         -21.9677     5.3094    97.3725 C0            1 RES     
    1243 H4         -22.6717     8.3450    98.5210 H4            1 RES     
    1244 C5         -15.9046     5.2123    95.8583 C5            1 RES     
    1245 C5         -17.2426     5.6439    95.2583 C5            1 RES     
    1246 C5         -18.1141     6.4464    96.2394 C5            1 RES     
    1247 C5         -17.5104     7.8114    96.6178 C5            1 RES     
    1248 C5         -18.4450     8.5805    97.5641 C5            1 RES     
    1249 C5         -17.9229    10.0092    97.8322 C5            1 RES     
    1250 C5         -18.8353    10.8801    98.7363 C5            1 RES     
    1251 C5         -20.2774    10.8646    98.2264 C5            1 RES     
    1252 C5         -21.2366    11.9724    98.7299 C5            1 RES     
    1253 C5         -21.7216    11.9511   100.2308 C5            1 RES     
    1254 C5         -22.7278    10.7732   100.3525 C5            1 RES     
    1255 C5         -23.5393    10.3465   101.5815 C5            1 RES     
    1256 C5         -24.3946     9.1336   101.0871 C5            1 RES     
    1257 C5         -25.3337     8.4612   102.0871 C5            1 RES     
    1258 C5         -26.5352     9.3238   102.4528 C5            1 RES     
    1259 C5         -21.0290    13.3031    97.9922 C5            1 RES     
    1260 C0         -22.3905    13.9779    97.5461 C0            1 RES     
    1261 C5         -22.1575    15.5424    97.3886 C5            1 RES     
    1262 C5         -23.1003    16.5108    98.1850 C5            1 RES     
    1263 C5         -24.4244    16.8666    97.4491 C5            1 RES     
    1264 C5         -24.2860    17.9020    96.3078 C5            1 RES     
    1265 C5         -25.5458    18.0156    95.4270 C5            1 RES     
    1266 C5         -26.7630    18.6694    96.0998 C5            1 RES     
    1267 C5         -26.5605    20.1423    96.5051 C5            1 RES     
    1268 C5         -26.2098    21.0510    95.3226 C5            1 RES     
    1269 C5         -22.3581    17.7849    98.7474 C5            1 RES     
    1270 C5         -21.4075    18.5389    97.7770 C5            1 RES     
    1271 C5         -20.8970    19.8982    98.3059 C5            1 RES     
    1272 C5         -20.0530    19.8259    99.5940 C5            1 RES     
    1273 C5         -19.5181    21.2076   100.0444 C5            1 RES     
    1274 C5         -18.4813    21.8156    99.0742 C5            1 RES     
    1275 C5         -17.9521    23.1962    99.5074 C5            1 RES     
    1276 C5         -17.1606    23.1740   100.8150 C5            1 RES     
    1277 H6         -15.2752     6.0892    96.1109 H6            1 RES     
    1278 H6         -15.3506     4.5954    95.1198 H6            1 RES     
    1279 H6         -16.0743     4.6034    96.7717 H6            1 RES     
    1280 H6         -17.0648     6.2359    94.3339 H6            1 RES     
    1281 H6         -17.7995     4.7241    94.9749 H6            1 RES     
    1282 H6         -19.0945     6.6248    95.7433 H6            1 RES     
    1283 H6         -18.2956     5.8403    97.1532 H6            1 RES     
    1284 H6         -17.3683     8.3988    95.6830 H6            1 RES     
    1285 H6         -16.5272     7.6863    97.1157 H6            1 RES     
    1286 H6         -19.4346     8.6395    97.0630 H6            1 RES     
    1287 H6         -18.5572     8.0269    98.5208 H6            1 RES     
    1288 H6         -16.9073     9.9679    98.2812 H6            1 RES     
    1289 H6         -17.8379    10.5199    96.8466 H6            1 RES     
    1290 H6         -18.8215    10.5249    99.7891 H6            1 RES     
    1291 H6         -18.4277    11.9137    98.7064 H6            1 RES     
    1292 H6         -20.7038     9.8667    98.4397 H6            1 RES     
    1293 H6         -20.2498    10.9534    97.1164 H6            1 RES     
    1294 H6         -22.1102    11.7228    98.2469 H6            1 RES     
    1295 H6         -20.8607    11.8699   100.9271 H6            1 RES     
    1296 H6         -22.2831    12.8837   100.4597 H6            1 RES     
    1297 H6         -23.5392    11.0521    99.6542 H6            1 RES     
    1298 H6         -22.1736     9.8734   100.0362 H6            1 RES     
    1299 H6         -24.1907    11.1800   101.9224 H6            1 RES     
    1300 H6         -22.8674    10.0328   102.4071 H6            1 RES     
    1301 H6         -25.0073     9.4300   100.2029 H6            1 RES     
    1302 H6         -23.6910     8.3421   100.7474 H6            1 RES     
    1303 H6         -24.7722     8.1490   102.9909 H6            1 RES     
    1304 H6         -25.7344     7.5457   101.5935 H6            1 RES     
    1305 H6         -27.1063     9.5934   101.5366 H6            1 RES     
    1306 H6         -26.2154    10.2453   102.9764 H6            1 RES     
    1307 H6         -27.2081     8.7403   103.1170 H6            1 RES     
    1308 H6         -20.4626    13.1690    97.0452 H6            1 RES     
    1309 H6         -20.3964    13.9240    98.6627 H6            1 RES     
    1310 H6         -21.1838    15.7296    97.8798 H6            1 RES     
    1311 H6         -21.9590    15.8609    96.3460 H6            1 RES     
    1312 H6         -23.4116    15.9514    99.0960 H6            1 RES     
    1313 H6         -24.8601    15.9163    97.0759 H6            1 RES     
    1314 H6         -25.1421    17.2891    98.1852 H6            1 RES     
    1315 H6         -24.0331    18.9010    96.7109 H6            1 RES     
    1316 H6         -23.4482    17.6068    95.6486 H6            1 RES     
    1317 H6         -25.2885    18.5936    94.5162 H6            1 RES     
    1318 H6         -25.8454    17.0060    95.0786 H6            1 RES     
    1319 H6         -27.0567    18.0796    96.9932 H6            1 RES     
    1320 H6         -27.6083    18.6263    95.3786 H6            1 RES     
    1321 H6         -25.7744    20.2312    97.2829 H6            1 RES     
    1322 H6         -27.5134    20.5045    96.9465 H6            1 RES     
    1323 H6         -26.9874    20.9782    94.5324 H6            1 RES     
    1324 H6         -26.1507    22.1040    95.6678 H6            1 RES     
    1325 H6         -25.2222    20.7868    94.8913 H6            1 RES     
    1326 H6         -21.7188    17.4587    99.5960 H6            1 RES     
    1327 H6         -23.1219    18.4766    99.1649 H6            1 RES     
    1328 H6         -21.9037    18.7710    96.8254 H6            1 RES     
    1329 H6         -20.5360    17.8964    97.5287 H6            1 RES     
    1330 H6         -20.2801    20.3298    97.4929 H6            1 RES     
    1331 H6         -21.7640    20.5743    98.4761 H6            1 RES     
    1332 H6         -19.1943    19.1344    99.4519 H6            1 RES     
    1333 H6         -20.6919    19.4305   100.4095 H6            1 RES     
    1334 H6         -20.3685    21.9115   100.1785 H6            1 RES     
    1335 H6         -19.0305    21.0648   101.0335 H6            1 RES     
    1336 H6         -18.9492    21.9623    98.0806 H6            1 RES     
    1337 H6         -17.6246    21.1164    98.9576 H6            1 RES     
    1338 H6         -17.2708    23.5662    98.7094 H6            1 RES     
    1339 H6         -18.7960    23.9135    99.5973 H6            1 RES     
    1340 H6         -17.8020    22.8751   101.6681 H6            1 RES     
    1341 H6         -16.7697    24.1932   101.0235 H6            1 RES     
    1342 H6         -16.2996    22.4772   100.7338 H6            1 RES     
    1343 C0         -21.0791     1.3588   100.9285 C0            1 RES     
    1344 C0         -21.2835    -0.0488   100.2359 C0            1 RES     
    1345 C0         -21.3142     0.0747    98.8878 C0            1 RES     
    1346 S1         -21.4888    -1.3802    98.0696 S1            1 RES     
    1347 C0         -21.5261    -2.2966    99.5001 C0            1 RES     
    1348 C0         -21.4846    -1.4109   100.5864 C0            1 RES     
    1349 C0         -21.2661     1.4449    98.5352 C0            1 RES     
    1350 C0         -21.1624     2.1662    99.6283 C0            1 RES     
    1351 C0         -21.3198     3.5637    99.3380 C0            1 RES     
    1352 C0         -21.5538     3.7816    97.9924 C0            1 RES     
    1353 S1         -21.5173     2.2892    96.9843 S1            1 RES     
    1354 H2         -21.5544    -1.7772   101.5778 H2            1 RES     
    1355 H2         -21.3916     4.3077   100.0739 H2            1 RES     
    1356 N3         -21.1437    -5.7862   100.9556 N3            1 RES     
    1357 C0         -21.2566    -4.4325   100.8478 C0            1 RES     
    1358 C0         -21.4996    -3.7989    99.6001 C0            1 RES     
    1359 C0         -21.6310    -4.6516    98.4828 C0            1 RES     
    1360 N3         -21.8709    -4.2308    97.2137 N3            1 RES     
    1361 S1         -21.9203    -5.6482    96.3683 S1            1 RES     
    1362 N3         -21.6448    -6.8039    97.5111 N3            1 RES     
    1363 C0         -21.5075    -6.0630    98.6425 C0            1 RES     
    1364 C0         -21.2594    -6.6133    99.8878 C0            1 RES     
    1365 H4         -21.1208    -3.8625   101.7435 H4            1 RES     
    1366 C5         -15.6488    -7.4081    97.2509 C5            1 RES     
    1367 C5         -16.9373    -6.6189    97.0195 C5            1 RES     
    1368 C5         -17.4624    -5.9326    98.2919 C5            1 RES     
    1369 C5         -16.5319    -4.8240    98.8172 C5            1 RES     
    1370 C5         -17.1302    -4.1503   100.0616 C5            1 RES     
    1371 C5         -16.2812    -2.9403   100.5096 C5            1 RES     
    1372 C5         -16.8426    -2.1632   101.7300 C5            1 RES     
    1373 C5         -18.3138    -1.8043   101.5139 C5            1 RES     
    1374 C5         -18.9290    -0.6975   102.4069 C5            1 RES     
    1375 C5         -19.1802    -0.9895   103.9367 C5            1 RES     
    1376 C5         -20.3856    -1.9677   104.0068 C5            1 RES     
    1377 C5         -21.0789    -2.5252   105.2556 C5            1 RES     
    1378 C5         -22.2371    -3.4169   104.6982 C5            1 RES     
    1379 C5         -23.1399    -4.1325   105.7016 C5            1 RES     
    1380 C5         -24.0618    -3.1848   106.4588 C5            1 RES     
    1381 C5         -18.5531     0.7127   101.9297 C5            1 RES     
    1382 C0         -19.7895     1.7019   101.8999 C0            1 RES     
    1383 C5         -19.2535     3.1933   102.0225 C5            1 RES     
    1384 C5         -19.8393     4.0945   103.1650 C5            1 RES     
    1385 C5         -21.1506     4.8411   102.7850 C5            1 RES     
    1386 C5         -20.9643     6.0773   101.8735 C5            1 RES     
    1387 C5         -22.2866     6.6157   101.2927 C5            1 RES     
    1388 C5         -23.2229     7.2937   102.3053 C5            1 RES     
    1389 C5         -22.6528     8.5692   102.9553 C5            1 RES     
    1390 C5         -22.2946     9.6569   101.9377 C5            1 RES     
    1391 C5         -18.7673     5.0483   103.8220 C5            1 RES     
    1392 C5         -17.8315     5.8328   102.8614 C5            1 RES     
    1393 C5         -16.9700     6.9165   103.5479 C5            1 RES     
    1394 C5         -15.9801     6.3937   104.6078 C5            1 RES     
    1395 C5         -15.1018     7.5131   105.2188 C5            1 RES     
    1396 C5         -14.1139     8.1430   104.2121 C5            1 RES     
    1397 C5         -13.2439     9.2665   104.8075 C5            1 RES     
    1398 C5         -12.2911     8.7961   105.9066 C5            1 RES     
    1399 H6         -14.8163    -6.7405    97.5511 H6            1 RES     
    1400 H6         -15.3547    -7.9191    96.3100 H6            1 RES     
    1401 H6         -15.8079    -8.1771    98.0365 H6            1 RES     
    1402 H6         -16.7756    -5.8648    96.2183 H6            1 RES     
    1403 H6         -17.7135    -7.3329    96.6670 H6            1 RES     
    1404 H6         -18.4443    -5.4726    98.0401 H6            1 RES     
    1405 H6         -17.6323    -6.6969    99.0807 H6            1 RES     
    1406 H6         -16.4072    -4.0656    98.0120 H6            1 RES     
    1407 H6         -15.5356    -5.2339    99.0811 H6            1 RES     
    1408 H6         -18.1473    -3.8015    99.7824 H6            1 RES     
    1409 H6         -17.2156    -4.8868   100.8889 H6            1 RES     
    1410 H6         -15.2430    -3.2643   100.7374 H6            1 RES     
    1411 H6         -16.2355    -2.2331    99.6509 H6            1 RES     
    1412 H6         -16.7497    -2.7551   102.6658 H6            1 RES     
    1413 H6         -16.2326    -1.2399   101.8334 H6            1 RES     
    1414 H6         -18.9073    -2.7338   101.5974 H6            1 RES     
    1415 H6         -18.4322    -1.4607   100.4610 H6            1 RES     
    1416 H6         -19.8973    -0.6683   102.0600 H6            1 RES     
    1417 H6         -18.2633    -1.3832   104.4234 H6            1 RES     
    1418 H6         -19.4893    -0.0545   104.4540 H6            1 RES     
    1419 H6         -21.2127    -1.3933   103.5489 H6            1 RES     
    1420 H6         -20.0895    -2.8493   103.4137 H6            1 RES     
    1421 H6         -21.4795    -1.6957   105.8775 H6            1 RES     
    1422 H6         -20.3752    -3.1387   105.8555 H6            1 RES     
    1423 H6         -22.8959    -2.8163   104.0272 H6            1 RES     
    1424 H6         -21.7769    -4.2156   104.0760 H6            1 RES     
    1425 H6         -22.5309    -4.7437   106.3980 H6            1 RES     
    1426 H6         -23.7954    -4.8198   105.1182 H6            1 RES     
    1427 H6         -24.6910    -2.6095   105.7437 H6            1 RES     
    1428 H6         -23.4787    -2.4846   107.0877 H6            1 RES     
    1429 H6         -24.7382    -3.7822   107.1069 H6            1 RES     
    1430 H6         -18.1747     0.7105   100.8845 H6            1 RES     
    1431 H6         -17.7105     1.0360   102.5784 H6            1 RES     
    1432 H6         -18.2007     3.0850   102.3454 H6            1 RES     
    1433 H6         -19.1478     3.7105   101.0483 H6            1 RES     
    1434 H6         -20.1249     3.3981   103.9856 H6            1 RES     
    1435 H6         -21.8296     4.0981   102.3169 H6            1 RES     
    1436 H6         -21.6447     5.1956   103.7155 H6            1 RES     
    1437 H6         -20.4471     6.8918   102.4153 H6            1 RES     
    1438 H6         -20.3157     5.8052   101.0198 H6            1 RES     
    1439 H6         -22.0492     7.3393   100.4866 H6            1 RES     
    1440 H6         -22.8432     5.7863   100.8103 H6            1 RES     
    1441 H6         -23.5007     6.5693   103.0994 H6            1 RES     
    1442 H6         -24.1550     7.5718   101.7663 H6            1 RES     
    1443 H6         -21.7598     8.3318   103.5693 H6            1 RES     
    1444 H6         -23.4304     8.9773   103.6357 H6            1 RES     
    1445 H6         -23.1778     9.9113   101.3134 H6            1 RES     
    1446 H6         -21.9615    10.5707   102.4721 H6            1 RES     
    1447 H6         -21.4611     9.3340   101.2804 H6            1 RES     
    1448 H6         -18.0943     4.4231   104.4476 H6            1 RES     
    1449 H6         -19.2953     5.7437   104.5101 H6            1 RES     
    1450 H6         -18.4017     6.3675   102.0901 H6            1 RES     
    1451 H6         -17.1640     5.1252   102.3250 H6            1 RES     
    1452 H6         -16.4021     7.4140   102.7367 H6            1 RES     
    1453 H6         -17.6376     7.6739   104.0152 H6            1 RES     
    1454 H6         -15.3197     5.6164   104.1658 H6            1 RES     
    1455 H6         -16.5612     5.9340   105.4329 H6            1 RES     
    1456 H6         -15.7528     8.3028   105.6540 H6            1 RES     
    1457 H6         -14.5153     7.0564   106.0458 H6            1 RES     
    1458 H6         -14.6812     8.6011   103.3778 H6            1 RES     
    1459 H6         -13.4533     7.3526   103.7935 H6            1 RES     
    1460 H6         -12.6248     9.6903   103.9859 H6            1 RES     
    1461 H6         -13.8923    10.0783   105.2017 H6            1 RES     
    1462 H6         -12.8484     8.4202   106.7878 H6            1 RES     
    1463 H6         -11.6651     9.6519   106.2391 H6            1 RES     
    1464 H6         -11.6206     7.9989   105.5215 H6            1 RES     
    1465 C0         -20.7203   -11.3883   102.3273 C0            1 RES     
    1466 C0         -21.3207   -12.5329   101.4151 C0            1 RES     
    1467 C0         -21.5232   -12.0893   100.1519 C0            1 RES     
    1468 S1         -22.1235   -13.2545    99.1037 S1            1 RES     
    1469 C0         -22.1441   -14.4633   100.2977 C0            1 RES     
    1470 C0         -21.7543   -13.8824   101.5130 C0            1 RES     
    1471 C0         -21.2360   -10.7047   100.0830 C0            1 RES     
    1472 C0         -20.8203   -10.2934   101.2593 C0            1 RES     
    1473 C0         -20.7164    -8.8616   101.2952 C0            1 RES     
    1474 C0         -21.0946    -8.2928   100.0926 C0            1 RES     
    1475 S1         -21.5272    -9.4857    98.8140 S1            1 RES     
    1476 H2         -21.7535   -14.4557   102.4036 H2            1 RES     
    1477 H2         -20.5181    -8.3130   102.1670 H2            1 RES     
    1478 N3         -22.3055   -18.2102   100.9115 N3            1 RES     
    1479 C0         -22.1413   -16.8715   101.1052 C0            1 RES     
    1480 C0         -22.4248   -15.9271   100.0829 C0            1 RES     
    1481 C0         -22.8989   -16.4534    98.8618 C0            1 RES     
    1482 N3         -23.2281   -15.7079    97.7750 N3            1 RES     
    1483 S1         -23.7036   -16.8526    96.6844 S1            1 RES     
    1484 N3         -23.5157   -18.2766    97.4935 N3            1 RES     
    1485 C0         -23.0577   -17.8615    98.7042 C0            1 RES     
    1486 C0         -22.7517   -18.7265    99.7402 C0            1 RES     
    1487 H4         -21.7560   -16.5634   102.0550 H4            1 RES     
    1488 C5         -17.8931   -19.8420    95.9702 C5            1 RES     
    1489 C5         -19.0029   -18.8073    96.1558 C5            1 RES     
    1490 C5         -19.1754   -18.3619    97.6180 C5            1 RES     
    1491 C5         -17.9623   -17.5904    98.1694 C5            1 RES     
    1492 C5         -18.2123   -17.1376    99.6160 C5            1 RES     
    1493 C5         -17.0677   -16.2366   100.1295 C5            1 RES     
    1494 C5         -17.2635   -15.6856   101.5670 C5            1 RES     
    1495 C5         -18.6394   -15.0339   101.7150 C5            1 RES     
    1496 C5         -18.8650   -14.0808   102.9156 C5            1 RES     
    1497 C5         -18.9441   -14.6791   104.3731 C5            1 RES     
    1498 C5         -20.3068   -15.4193   104.4726 C5            1 RES     
    1499 C5         -20.9110   -16.1273   105.6911 C5            1 RES     
    1500 C5         -22.3023   -16.6440   105.1968 C5            1 RES     
    1501 C5         -23.1788   -17.4080   106.1877 C5            1 RES     
    1502 C5         -23.7547   -16.5209   107.2845 C5            1 RES     
    1503 C5         -18.2712   -12.6858   102.6723 C5            1 RES     
    1504 C0         -19.2582   -11.5171   103.0823 C0            1 RES     
    1505 C5         -18.4038   -10.2150   103.4007 C5            1 RES     
    1506 C5         -18.6081    -9.5228   104.7935 C5            1 RES     
    1507 C5         -19.7710    -8.4896   104.8322 C5            1 RES     
    1508 C5         -19.4615    -7.1246   104.1729 C5            1 RES     
    1509 C5         -20.7092    -6.2406   103.9787 C5            1 RES     
    1510 C5         -21.3189    -5.6694   105.2684 C5            1 RES     
    1511 C5         -20.3997    -4.7049   106.0428 C5            1 RES     
    1512 C5         -19.9717    -3.4866   105.2184 C5            1 RES     
    1513 C5         -17.2721    -8.9553   105.4126 C5            1 RES     
    1514 C5         -16.3426    -8.1414   104.4705 C5            1 RES     
    1515 C5         -15.1777    -7.4199   105.1848 C5            1 RES     
    1516 C5         -14.1770    -8.3446   105.9061 C5            1 RES     
    1517 C5         -12.9993    -7.5739   106.5520 C5            1 RES     
    1518 C5         -12.0595    -6.9059   105.5241 C5            1 RES     
    1519 C5         -10.8912    -6.1263   106.1575 C5            1 RES     
    1520 C5          -9.9094    -7.0036   106.9341 C5            1 RES     
    1521 H6         -16.9022   -19.4212    96.2345 H6            1 RES     
    1522 H6         -17.8573   -20.1582    94.9064 H6            1 RES     
    1523 H6         -18.0951   -20.7355    96.5984 H6            1 RES     
    1524 H6         -18.8039   -17.9249    95.5091 H6            1 RES     
    1525 H6         -19.9571   -19.2699    95.8211 H6            1 RES     
    1526 H6         -20.0624   -17.6906    97.6582 H6            1 RES     
    1527 H6         -19.3862   -19.2499    98.2523 H6            1 RES     
    1528 H6         -17.7987   -16.6964    97.5267 H6            1 RES     
    1529 H6         -17.0488   -18.2193    98.1481 H6            1 RES     
    1530 H6         -19.1612   -16.5599    99.6141 H6            1 RES     
    1531 H6         -18.3300   -18.0229   100.2768 H6            1 RES     
    1532 H6         -16.1007   -16.7820   100.0830 H6            1 RES     
    1533 H6         -16.9993   -15.3649    99.4403 H6            1 RES     
    1534 H6         -17.1621   -16.4897   102.3272 H6            1 RES     
    1535 H6         -16.4618   -14.9349   101.7371 H6            1 RES     
    1536 H6         -19.3989   -15.8379   101.7198 H6            1 RES     
    1537 H6         -18.8358   -14.4346   100.7967 H6            1 RES     
    1538 H6         -19.8451   -13.8009   102.7743 H6            1 RES     
    1539 H6         -18.0710   -15.3315   104.5843 H6            1 RES     
    1540 H6         -18.9664   -13.8545   105.1193 H6            1 RES     
    1541 H6         -21.0504   -14.6169   104.3086 H6            1 RES     
    1542 H6         -20.2969   -16.1726   103.6669 H6            1 RES     
    1543 H6         -21.0287   -15.4123   106.5339 H6            1 RES     
    1544 H6         -20.2739   -16.9791   106.0072 H6            1 RES     
    1545 H6         -22.9093   -15.7954   104.8012 H6            1 RES     
    1546 H6         -22.1205   -17.3399   104.3484 H6            1 RES     
    1547 H6         -22.6185   -18.2641   106.6150 H6            1 RES     
    1548 H6         -24.0449   -17.8113   105.6135 H6            1 RES     
    1549 H6         -24.3450   -15.6913   106.8357 H6            1 RES     
    1550 H6         -22.9492   -16.1035   107.9189 H6            1 RES     
    1551 H6         -24.4399   -17.1273   107.9149 H6            1 RES     
    1552 H6         -18.0606   -12.5059   101.5958 H6            1 RES     
    1553 H6         -17.2926   -12.6785   103.1992 H6            1 RES     
    1554 H6         -17.3625   -10.5796   103.4866 H6            1 RES     
    1555 H6         -18.3350    -9.5080   102.5503 H6            1 RES     
    1556 H6         -18.9115   -10.3331   105.4944 H6            1 RES     
    1557 H6         -20.6545    -8.9694   104.3618 H6            1 RES     
    1558 H6         -20.0349    -8.2854   105.8925 H6            1 RES     
    1559 H6         -18.7079    -6.5656   104.7596 H6            1 RES     
    1560 H6         -19.0194    -7.2953   103.1734 H6            1 RES     
    1561 H6         -20.4444    -5.3993   103.3064 H6            1 RES     
    1562 H6         -21.4952    -6.8210   103.4535 H6            1 RES     
    1563 H6         -21.6246    -6.5015   105.9367 H6            1 RES     
    1564 H6         -22.2391    -5.1124   104.9864 H6            1 RES     
    1565 H6         -19.4974    -5.2340   106.4126 H6            1 RES     
    1566 H6         -20.9630    -4.3405   106.9282 H6            1 RES     
    1567 H6         -20.8624    -2.9407   104.8403 H6            1 RES     
    1568 H6         -19.3759    -2.7988   105.8535 H6            1 RES     
    1569 H6         -19.3329    -3.7850   104.3616 H6            1 RES     
    1570 H6         -16.6633    -9.8191   105.7568 H6            1 RES     
    1571 H6         -17.5317    -8.3618   106.3162 H6            1 RES     
    1572 H6         -16.8928    -7.3474   103.9482 H6            1 RES     
    1573 H6         -15.9284    -8.8069   103.6833 H6            1 RES     
    1574 H6         -14.6427    -6.8513   104.3983 H6            1 RES     
    1575 H6         -15.5915    -6.6904   105.9157 H6            1 RES     
    1576 H6         -13.7706    -9.0979   105.1968 H6            1 RES     
    1577 H6         -14.7144    -8.8780   106.7162 H6            1 RES     
    1578 H6         -13.3949    -6.8088   107.2555 H6            1 RES     
    1579 H6         -12.4085    -8.3095   107.1405 H6            1 RES     
    1580 H6         -12.6325    -6.1707   104.9252 H6            1 RES     
    1581 H6         -11.6523    -7.6773   104.8346 H6            1 RES     
    1582 H6         -10.3242    -5.6346   105.3362 H6            1 RES     
    1583 H6         -11.2857    -5.3307   106.8256 H6            1 RES     
    1584 H6         -10.3978    -7.4745   107.8106 H6            1 RES     
    1585 H6          -9.0728    -6.3745   107.3074 H6            1 RES     
    1586 H6          -9.4892    -7.7913   106.2735 H6            1 RES     
    1587 C0         -22.8913   -23.9627   101.0070 C0            1 RES     
    1588 C0         -23.8504   -24.7346   100.0134 C0            1 RES     
    1589 C0         -24.1377   -23.9752    98.9298 C0            1 RES     
    1590 S1         -25.1212   -24.7344    97.8015 S1            1 RES     
    1591 C0         -25.2231   -26.1694    98.7057 C0            1 RES     
    1592 C0         -24.5430   -25.9713    99.9160 C0            1 RES     
    1593 C0         -23.5746   -22.6862    99.0904 C0            1 RES     
    1594 C0         -22.9116   -22.6455   100.2237 C0            1 RES     
    1595 C0         -22.5000   -21.3041   100.5296 C0            1 RES     
    1596 C0         -22.9213   -20.4088    99.5633 C0            1 RES     
    1597 S1         -23.7828   -21.1690    98.1760 S1            1 RES     
    1598 H2         -24.5332   -26.7307   100.6542 H2            1 RES     
    1599 H2         -22.0625   -21.0218   101.4402 H2            1 RES     
    1600 N3         -26.0890   -29.8669    98.5634 N3            1 RES     
    1601 C0         -25.6157   -28.6626    98.9903 C0            1 RES     
    1602 C0         -25.8387   -27.4678    98.2555 C0            1 RES     
    1603 C0         -26.5893   -27.5975    97.0670 C0            1 RES     
    1604 N3         -26.9084   -26.5694    96.2385 N3            1 RES     
    1605 S1         -27.7733   -27.3209    95.0497 S1            1 RES     
    1606 N3         -27.7767   -28.9065    95.5006 N3            1 RES     
    1607 C0         -27.0669   -28.8777    96.6595 C0            1 RES     
    1608 C0         -26.8032   -30.0039    97.4194 C0            1 RES     
    1609 H4         -25.0375   -28.6613    99.8910 H4            1 RES     
    1610 C5         -22.9066   -31.0249    92.6406 C5            1 RES     
    1611 C5         -23.7298   -29.8861    93.2423 C5            1 RES     
    1612 C5         -23.5852   -29.7776    94.7698 C5            1 RES     
    1613 C5         -22.1674   -29.3839    95.2235 C5            1 RES     
    1614 C5         -22.0985   -29.2511    96.7525 C5            1 RES     
    1615 C5         -20.7247   -28.7126    97.2092 C5            1 RES     
    1616 C5         -20.5838   -28.4934    98.7391 C5            1 RES     
    1617 C5         -21.7513   -27.6649    99.2778 C5            1 RES     
    1618 C5         -21.5882   -26.9999   100.6678 C5            1 RES     
    1619 C5         -21.5772   -27.9040   101.9605 C5            1 RES     
    1620 C5         -23.0365   -28.3963   102.1668 C5            1 RES     
    1621 C5         -23.5913   -29.2564   103.3085 C5            1 RES     
    1622 C5         -25.1183   -29.3891   102.9958 C5            1 RES     
    1623 C5         -25.9816   -30.2009   103.9598 C5            1 RES     
    1624 C5         -26.1862   -29.5130   105.3039 C5            1 RES     
    1625 C5         -20.7525   -25.7133   100.6042 C5            1 RES     
    1626 C0         -21.3953   -24.5212   101.4251 C0            1 RES     
    1627 C5         -20.2450   -23.5024   101.8318 C5            1 RES     
    1628 C5         -20.0886   -23.1361   103.3491 C5            1 RES     
    1629 C5         -20.9851   -21.9545   103.8197 C5            1 RES     
    1630 C5         -20.4919   -20.5478   103.4052 C5            1 RES     
    1631 C5         -21.5365   -19.4386   103.6380 C5            1 RES     
    1632 C5         -21.8128   -19.0924   105.1096 C5            1 RES     
    1633 C5         -20.6046   -18.5158   105.8729 C5            1 RES     
    1634 C5         -20.0527   -17.2309   105.2473 C5            1 RES     
    1635 C5         -18.5858   -22.9749   103.8026 C5            1 RES     
    1636 C5         -17.6534   -22.1362   102.8854 C5            1 RES     
    1637 C5         -16.2688   -21.8205   103.4945 C5            1 RES     
    1638 C5         -15.3935   -23.0505   103.8068 C5            1 RES     
    1639 C5         -13.9962   -22.6738   104.3578 C5            1 RES     
    1640 C5         -13.0977   -21.9560   103.3266 C5            1 RES     
    1641 C5         -11.7094   -21.5661   103.8692 C5            1 RES     
    1642 C5         -10.8341   -22.7608   104.2478 C5            1 RES     
    1643 H6         -21.8207   -30.8591    92.7898 H6            1 RES     
    1644 H6         -23.0968   -31.0806    91.5480 H6            1 RES     
    1645 H6         -23.1998   -31.9925    93.1006 H6            1 RES     
    1646 H6         -23.4446   -28.9241    92.7628 H6            1 RES     
    1647 H6         -24.7995   -30.0815    93.0099 H6            1 RES     
    1648 H6         -24.2924   -28.9905    95.1153 H6            1 RES     
    1649 H6         -23.8849   -30.7398    95.2385 H6            1 RES     
    1650 H6         -21.9134   -28.4056    94.7571 H6            1 RES     
    1651 H6         -21.4229   -30.1396    94.8998 H6            1 RES     
    1652 H6         -22.8916   -28.5325    97.0503 H6            1 RES     
    1653 H6         -22.3036   -30.2333    97.2293 H6            1 RES     
    1654 H6         -19.9144   -29.3921    96.8681 H6            1 RES     
    1655 H6         -20.5742   -27.7280    96.7118 H6            1 RES     
    1656 H6         -20.5454   -29.4601    99.2858 H6            1 RES     
    1657 H6         -19.6241   -27.9569    98.9014 H6            1 RES     
    1658 H6         -22.6558   -28.3012    99.2645 H6            1 RES     
    1659 H6         -21.9486   -26.8398    98.5559 H6            1 RES     
    1660 H6         -22.4957   -26.5273   100.7772 H6            1 RES     
    1661 H6         -20.8422   -28.7304   101.8630 H6            1 RES     
    1662 H6         -21.3122   -27.2895   102.8491 H6            1 RES     
    1663 H6         -23.6073   -27.4604   102.3154 H6            1 RES     
    1664 H6         -23.3069   -28.9264   101.2381 H6            1 RES     
    1665 H6         -23.4277   -28.7529   104.2858 H6            1 RES     
    1666 H6         -23.1115   -30.2569   103.3164 H6            1 RES     
    1667 H6         -25.5815   -28.3780   102.9052 H6            1 RES     
    1668 H6         -25.2167   -29.8843   102.0048 H6            1 RES     
    1669 H6         -25.5603   -31.2185   104.0883 H6            1 RES     
    1670 H6         -26.9890   -30.2982   103.4926 H6            1 RES     
    1671 H6         -26.6452   -28.5103   105.1551 H6            1 RES     
    1672 H6         -25.2254   -29.4059   105.8433 H6            1 RES     
    1673 H6         -26.8843   -30.1221   105.9172 H6            1 RES     
    1674 H6         -20.6698   -25.3226    99.5668 H6            1 RES     
    1675 H6         -19.7282   -26.0029   100.9238 H6            1 RES     
    1676 H6         -19.3047   -24.0534   101.6403 H6            1 RES     
    1677 H6         -20.1531   -22.6369   101.1461 H6            1 RES     
    1678 H6         -20.4513   -24.0237   103.9153 H6            1 RES     
    1679 H6         -22.0103   -22.1464   103.4400 H6            1 RES     
    1680 H6         -21.0397   -21.9650   104.9298 H6            1 RES     
    1681 H6         -19.5581   -20.2850   103.9376 H6            1 RES     
    1682 H6         -20.2491   -20.5509   102.3260 H6            1 RES     
    1683 H6         -21.2003   -18.5215   103.1130 H6            1 RES     
    1684 H6         -22.4972   -19.7308   103.1665 H6            1 RES     
    1685 H6         -22.1871   -19.9927   105.6405 H6            1 RES     
    1686 H6         -22.6240   -18.3321   105.1288 H6            1 RES     
    1687 H6         -19.7918   -19.2672   105.9471 H6            1 RES     
    1688 H6         -20.9399   -18.2793   106.9053 H6            1 RES     
    1689 H6         -20.8521   -16.4635   105.1663 H6            1 RES     
    1690 H6         -19.2366   -16.8290   105.8827 H6            1 RES     
    1691 H6         -19.6262   -17.4243   104.2414 H6            1 RES     
    1692 H6         -18.1317   -23.9886   103.8405 H6            1 RES     
    1693 H6         -18.5762   -22.5770   104.8407 H6            1 RES     
    1694 H6         -18.0923   -21.1572   102.6512 H6            1 RES     
    1695 H6         -17.5120   -22.6576   101.9148 H6            1 RES     
    1696 H6         -15.7469   -21.1841   102.7526 H6            1 RES     
    1697 H6         -16.4046   -21.2246   104.4242 H6            1 RES     
    1698 H6         -15.2668   -23.6730   102.8945 H6            1 RES     
    1699 H6         -15.9069   -23.6586   104.5791 H6            1 RES     
    1700 H6         -14.1109   -22.0407   105.2648 H6            1 RES     
    1701 H6         -13.4959   -23.6199   104.6597 H6            1 RES     
    1702 H6         -13.5824   -21.0109   103.0112 H6            1 RES     
    1703 H6         -12.9712   -22.6006   102.4295 H6            1 RES     
    1704 H6         -11.1781   -21.0005   103.0719 H6            1 RES     
    1705 H6         -11.8216   -20.8956   104.7482 H6            1 RES     
    1706 H6         -11.2768   -23.3334   105.0872 H6            1 RES     
    1707 H6          -9.8367   -22.3949   104.5737 H6            1 RES     
    1708 H6         -10.6942   -23.4300   103.3726 H6            1 RES     
    1709 C0         -27.8699   -35.2834    97.5967 C0            1 RES     
    1710 C0         -29.1078   -35.6169    96.6697 C0            1 RES     
    1711 C0         -29.3829   -34.5835    95.8390 C0            1 RES     
    1712 S1         -30.6616   -34.8687    94.7899 S1            1 RES     
    1713 C0         -30.9331   -36.4367    95.3856 C0            1 RES     
    1714 C0         -30.0553   -36.6540    96.4573 C0            1 RES     
    1715 C0         -28.5401   -33.4888    96.1475 C0            1 RES     
    1716 C0         -27.7237   -33.8352    97.1166 C0            1 RES     
    1717 C0         -26.9944   -32.6983    97.6044 C0            1 RES     
    1718 C0         -27.3526   -31.5395    96.9397 C0            1 RES     
    1719 S1         -28.5519   -31.7855    95.6184 S1            1 RES     
    1720 H2         -30.0991   -37.5568    97.0097 H2            1 RES     
    1721 H2         -26.3771   -32.7214    98.4521 H2            1 RES     
    1722 N3         -32.5805   -39.7842    94.6625 N3            1 RES     
    1723 C0         -31.8030   -38.8178    95.2267 C0            1 RES     
    1724 C0         -31.8715   -37.4626    94.8071 C0            1 RES     
    1725 C0         -32.7996   -37.1728    93.7837 C0            1 RES     
    1726 N3         -33.0104   -35.9378    93.2588 N3            1 RES     
    1727 S1         -34.1818   -36.2219    92.1304 S1            1 RES     
    1728 N3         -34.4574   -37.8434    92.2413 N3            1 RES     
    1729 C0         -33.5946   -38.2155    93.2236 C0            1 RES     
    1730 C0         -33.4684   -39.5182    93.6733 C0            1 RES     
    1731 H4         -31.1114   -39.1318    95.9808 H4            1 RES     
    1732 C5         -30.6296   -40.0409    88.1298 C5            1 RES     
    1733 C5         -31.0923   -38.9516    89.0973 C5            1 RES     
    1734 C5         -30.7039   -39.2361    90.5581 C5            1 RES     
    1735 C5         -29.1836   -39.2160    90.8017 C5            1 RES     
    1736 C5         -28.8628   -39.4643    92.2835 C5            1 RES     
    1737 C5         -27.3537   -39.2989    92.5680 C5            1 RES     
    1738 C5         -26.9448   -39.4776    94.0544 C5            1 RES     
    1739 C5         -27.8156   -38.6095    94.9642 C5            1 RES     
    1740 C5         -27.3107   -38.3329    96.4028 C5            1 RES     
    1741 C5         -27.3023   -39.5057    97.4577 C5            1 RES     
    1742 C5         -28.7863   -39.7696    97.8357 C5            1 RES     
    1743 C5         -29.3372   -40.7654    98.8632 C5            1 RES     
    1744 C5         -30.8863   -40.5505    98.8289 C5            1 RES     
    1745 C5         -31.7511   -41.4040    99.7549 C5            1 RES     
    1746 C5         -31.6031   -41.0303   101.2246 C5            1 RES     
    1747 C5         -26.2381   -37.2348    96.4432 C5            1 RES     
    1748 C0         -26.4829   -36.1782    97.5974 C0            1 RES     
    1749 C5         -25.0942   -35.5029    97.9745 C5            1 RES     
    1750 C5         -24.6409   -35.5407    99.4757 C5            1 RES     
    1751 C5         -25.1845   -34.3665   100.3401 C5            1 RES     
    1752 C5         -24.4689   -33.0104   100.1338 C5            1 RES     
    1753 C5         -25.2062   -31.8230   100.7835 C5            1 RES     
    1754 C5         -25.1817   -31.7934   102.3198 C5            1 RES     
    1755 C5         -23.7790   -31.6353   102.9381 C5            1 RES     
    1756 C5         -23.0639   -30.3557   102.4931 C5            1 RES     
    1757 C5         -23.0882   -35.7575    99.6556 C5            1 RES     
    1758 C5         -22.1441   -34.9016    98.7668 C5            1 RES     
    1759 C5         -20.6495   -34.9871    99.1502 C5            1 RES     
    1760 C5         -20.0211   -36.3898    99.0316 C5            1 RES     
    1761 C5         -18.5098   -36.4054    99.3692 C5            1 RES     
    1762 C5         -17.6411   -35.6320    98.3528 C5            1 RES     
    1763 C5         -16.1370   -35.6314    98.6867 C5            1 RES     
    1764 C5         -15.4911   -37.0161    98.6391 C5            1 RES     
    1765 H6         -29.5235   -40.1081    88.0984 H6            1 RES     
    1766 H6         -30.9865   -39.8013    87.1060 H6            1 RES     
    1767 H6         -31.0515   -41.0233    88.4308 H6            1 RES     
    1768 H6         -30.6821   -37.9685    88.7780 H6            1 RES     
    1769 H6         -32.2013   -38.8957    89.0396 H6            1 RES     
    1770 H6         -31.1675   -38.4423    91.1857 H6            1 RES     
    1771 H6         -31.1296   -40.2143    90.8698 H6            1 RES     
    1772 H6         -28.7981   -38.2150    90.5043 H6            1 RES     
    1773 H6         -28.6739   -39.9915    90.1943 H6            1 RES     
    1774 H6         -29.4311   -38.7097    92.8679 H6            1 RES     
    1775 H6         -29.2004   -40.4802    92.5807 H6            1 RES     
    1776 H6         -26.7668   -40.0090    91.9467 H6            1 RES     
    1777 H6         -27.0714   -38.2664    92.2620 H6            1 RES     
    1778 H6         -27.0335   -40.5378    94.3751 H6            1 RES     
    1779 H6         -25.8794   -39.1716    94.1352 H6            1 RES     
    1780 H6         -28.8270   -39.0560    94.9955 H6            1 RES     
    1781 H6         -27.9364   -37.6151    94.4769 H6            1 RES     
    1782 H6         -28.0699   -37.7484    96.7781 H6            1 RES     
    1783 H6         -26.7835   -40.4009    97.0549 H6            1 RES     
    1784 H6         -26.7839   -39.1761    98.3851 H6            1 RES     
    1785 H6         -29.1155   -38.8107    98.2783 H6            1 RES     
    1786 H6         -29.2978   -40.0081    96.8880 H6            1 RES     
    1787 H6         -28.9273   -40.5451    99.8726 H6            1 RES     
    1788 H6         -29.0865   -41.8073    98.5750 H6            1 RES     
    1789 H6         -31.1309   -39.4818    99.0366 H6            1 RES     
    1790 H6         -31.2336   -40.7710    97.7956 H6            1 RES     
    1791 H6         -31.5427   -42.4806    99.5903 H6            1 RES     
    1792 H6         -32.8136   -41.2096    99.4799 H6            1 RES     
    1793 H6         -31.8541   -39.9565   101.3739 H6            1 RES     
    1794 H6         -30.5727   -41.2243   101.5799 H6            1 RES     
    1795 H6         -32.3168   -41.6357   101.8234 H6            1 RES     
    1796 H6         -26.2279   -36.6295    95.5109 H6            1 RES     
    1797 H6         -25.2637   -37.7667    96.4946 H6            1 RES     
    1798 H6         -24.3323   -36.1485    97.4980 H6            1 RES     
    1799 H6         -24.9218   -34.5291    97.4747 H6            1 RES     
    1800 H6         -25.0971   -36.4597    99.9083 H6            1 RES     
    1801 H6         -26.2717   -34.2802   100.1331 H6            1 RES     
    1802 H6         -25.0755   -34.6307   101.4142 H6            1 RES     
    1803 H6         -23.4324   -33.0493   100.5192 H6            1 RES     
    1804 H6         -24.3945   -32.7995    99.0504 H6            1 RES     
    1805 H6         -24.7631   -30.8808   100.4016 H6            1 RES     
    1806 H6         -26.2660   -31.8219   100.4556 H6            1 RES     
    1807 H6         -25.6571   -32.7141   102.7181 H6            1 RES     
    1808 H6         -25.7997   -30.9295   102.6486 H6            1 RES     
    1809 H6         -23.1437   -32.5132   102.7005 H6            1 RES     
    1810 H6         -23.8998   -31.5959   104.0418 H6            1 RES     
    1811 H6         -23.6837   -29.4632   102.7249 H6            1 RES     
    1812 H6         -22.0960   -30.2655   103.0284 H6            1 RES     
    1813 H6         -22.8419   -30.3762   101.4062 H6            1 RES     
    1814 H6         -22.8607   -36.8146    99.3985 H6            1 RES     
    1815 H6         -22.8406   -35.6257   100.7314 H6            1 RES     
    1816 H6         -22.3932   -33.8337    98.8254 H6            1 RES     
    1817 H6         -22.2622   -35.1940    97.7016 H6            1 RES     
    1818 H6         -20.1191   -34.2941    98.4672 H6            1 RES     
    1819 H6         -20.5160   -34.6148   100.1900 H6            1 RES     
    1820 H6         -20.1665   -36.7900    98.0048 H6            1 RES     
    1821 H6         -20.5327   -37.0643    99.7479 H6            1 RES     
    1822 H6         -18.3513   -35.9959   100.3909 H6            1 RES     
    1823 H6         -18.1843   -37.4687    99.3705 H6            1 RES     
    1824 H6         -17.9538   -34.5692    98.3354 H6            1 RES     
    1825 H6         -17.7891   -36.0569    97.3360 H6            1 RES     
    1826 H6         -15.6208   -34.9947    97.9345 H6            1 RES     
    1827 H6         -15.9722   -35.1800    99.6887 H6            1 RES     
    1828 H6         -15.9170   -37.6851    99.4134 H6            1 RES     
    1829 H6         -14.4016   -36.9186    98.8351 H6            1 RES     
    1830 H6         -15.6282   -37.4722    97.6358 H6            1 RES     
    1831 C0         -35.6005   -44.4179    92.9737 C0            1 RES     
    1832 C0         -37.0041   -44.2996    92.2534 C0            1 RES     
    1833 C0         -37.1716   -43.0668    91.7190 C0            1 RES     
    1834 S1         -38.6223   -42.8661    90.8991 S1            1 RES     
    1835 C0         -39.1316   -44.4583    91.2039 C0            1 RES     
    1836 C0         -38.1720   -45.0742    92.0202 C0            1 RES     
    1837 C0         -36.0782   -42.2416    92.0762 C0            1 RES     
    1838 C0         -35.2207   -42.9458    92.7795 C0            1 RES     
    1839 C0         -34.2015   -42.1031    93.3393 C0            1 RES     
    1840 C0         -34.3979   -40.7753    93.0057 C0            1 RES     
    1841 S1         -35.8038   -40.4865    91.9172 S1            1 RES     
    1842 H2         -38.3257   -46.0602    92.3752 H2            1 RES     
    1843 H2         -33.4851   -42.4347    94.0300 H2            1 RES     
    1844 N3         -41.5446   -47.1964    90.1445 N3            1 RES     
    1845 C0         -40.5039   -46.5432    90.7337 C0            1 RES     
    1846 C0         -40.3425   -45.1367    90.6198 C0            1 RES     
    1847 C0         -41.3279   -44.4542    89.8744 C0            1 RES     
    1848 N3         -41.3451   -43.1125    89.6622 N3            1 RES     
    1849 S1         -42.7037   -42.9108    88.7458 S1            1 RES     
    1850 N3         -43.2999   -44.4382    88.5751 N3            1 RES     
    1851 C0         -42.4012   -45.1782    89.2769 C0            1 RES     
    1852 C0         -42.4913   -46.5518    89.4193 C0            1 RES     
    1853 H4         -39.7918   -47.1434    91.2610 H4            1 RES     
    1854 C5         -40.6804   -46.2314    83.4460 C5            1 RES     
    1855 C5         -40.7515   -45.3394    84.6853 C5            1 RES     
    1856 C5         -40.2215   -46.0263    85.9554 C5            1 RES     
    1857 C5         -38.7131   -46.3312    85.9017 C5            1 RES     
    1858 C5         -38.2375   -46.9766    87.2122 C5            1 RES     
    1859 C5         -36.7029   -47.1504    87.2294 C5            1 RES     
    1860 C5         -36.1266   -47.7459    88.5416 C5            1 RES     
    1861 C5         -36.6477   -46.9800    89.7590 C5            1 RES     
    1862 C5         -35.8885   -47.1459    91.0995 C5            1 RES     
    1863 C5         -35.9752   -48.5186    91.8720 C5            1 RES     
    1864 C5         -37.4088   -48.6006    92.4659 C5            1 RES     
    1865 C5         -38.0018   -49.6997    93.3555 C5            1 RES     
    1866 C5         -39.4569   -49.2149    93.6636 C5            1 RES     
    1867 C5         -40.3376   -50.0990    94.5448 C5            1 RES     
    1868 C5         -39.8978   -50.1169    96.0035 C5            1 RES     
    1869 C5         -34.6121   -46.2941    91.1560 C5            1 RES     
    1870 C0         -34.4522   -45.5159    92.5261 C0            1 RES     
    1871 C5         -32.9112   -45.2034    92.7591 C5            1 RES     
    1872 C5         -32.2598   -45.6755    94.1058 C5            1 RES     
    1873 C5         -32.4062   -44.6638    95.2789 C5            1 RES     
    1874 C5         -31.4558   -43.4443    95.2195 C5            1 RES     
    1875 C5         -31.8181   -42.3351    96.2265 C5            1 RES     
    1876 C5         -31.5611   -42.6761    97.7027 C5            1 RES     
    1877 C5         -30.0816   -42.9176    98.0594 C5            1 RES     
    1878 C5         -29.1832   -41.7144    97.7554 C5            1 RES     
    1879 C5         -30.7802   -46.1974    93.9363 C5            1 RES     
    1880 C5         -29.8168   -45.3337    93.0761 C5            1 RES     
    1881 C5         -28.3353   -45.7682    93.1400 C5            1 RES     
    1882 C5         -28.0456   -47.1903    92.6201 C5            1 RES     
    1883 C5         -26.5398   -47.5501    92.6510 C5            1 RES     
    1884 C5         -25.6856   -46.7217    91.6660 C5            1 RES     
    1885 C5         -24.1838   -47.0639    91.6980 C5            1 RES     
    1886 C5         -23.8630   -48.4887    91.2465 C5            1 RES     
    1887 H6         -39.6313   -46.4818    83.1899 H6            1 RES     
    1888 H6         -41.1251   -45.6967    82.5803 H6            1 RES     
    1889 H6         -41.2534   -47.1677    83.6160 H6            1 RES     
    1890 H6         -40.1925   -44.3961    84.5002 H6            1 RES     
    1891 H6         -41.8191   -45.0781    84.8541 H6            1 RES     
    1892 H6         -40.4069   -45.3357    86.8085 H6            1 RES     
    1893 H6         -40.7956   -46.9604    86.1373 H6            1 RES     
    1894 H6         -38.1709   -45.3716    85.7459 H6            1 RES     
    1895 H6         -38.4764   -47.0171    85.0628 H6            1 RES     
    1896 H6         -38.5388   -46.2949    88.0359 H6            1 RES     
    1897 H6         -38.7367   -47.9587    87.3556 H6            1 RES     
    1898 H6         -36.3796   -47.7840    86.3758 H6            1 RES     
    1899 H6         -36.2548   -46.1406    87.0916 H6            1 RES     
    1900 H6         -36.3915   -48.8194    88.6508 H6            1 RES     
    1901 H6         -35.0205   -47.6592    88.4771 H6            1 RES     
    1902 H6         -37.7151   -47.2370    89.8922 H6            1 RES     
    1903 H6         -36.6238   -45.8931    89.5166 H6            1 RES     
    1904 H6         -36.4413   -46.5437    91.7245 H6            1 RES     
    1905 H6         -35.7251   -49.3690    91.2035 H6            1 RES     
    1906 H6         -35.2672   -48.5147    92.7300 H6            1 RES     
    1907 H6         -37.4565   -47.7319    93.1492 H6            1 RES     
    1908 H6         -38.0938   -48.5138    91.6057 H6            1 RES     
    1909 H6         -37.4098   -49.8008    94.2907 H6            1 RES     
    1910 H6         -38.0250   -50.6706    92.8186 H6            1 RES     
    1911 H6         -39.4341   -48.2004    94.1274 H6            1 RES     
    1912 H6         -39.9920   -49.1194    92.6932 H6            1 RES     
    1913 H6         -40.3908   -51.1250    94.1277 H6            1 RES     
    1914 H6         -41.3628   -49.6619    94.5242 H6            1 RES     
    1915 H6         -39.8886   -49.0825    96.4136 H6            1 RES     
    1916 H6         -38.8918   -50.5672    96.1074 H6            1 RES     
    1917 H6         -40.6279   -50.7127    96.5921 H6            1 RES     
    1918 H6         -34.6106   -45.4962    90.3822 H6            1 RES     
    1919 H6         -33.7772   -46.9852    90.9100 H6            1 RES     
    1920 H6         -32.3838   -45.8405    92.0241 H6            1 RES     
    1921 H6         -32.6104   -44.1844    92.4444 H6            1 RES     
    1922 H6         -32.8329   -46.5765    94.4215 H6            1 RES     
    1923 H6         -33.4681   -44.3418    95.3064 H6            1 RES     
    1924 H6         -32.1988   -45.1905    96.2355 H6            1 RES     
    1925 H6         -30.4062   -43.7546    95.3828 H6            1 RES     
    1926 H6         -31.4989   -42.9986    94.2081 H6            1 RES     
    1927 H6         -31.2453   -41.4218    95.9665 H6            1 RES     
    1928 H6         -32.8896   -42.0706    96.1153 H6            1 RES     
    1929 H6         -32.1582   -43.5672    97.9890 H6            1 RES     
    1930 H6         -31.9248   -41.8205    98.3129 H6            1 RES     
    1931 H6         -29.6908   -43.8111    97.5307 H6            1 RES     
    1932 H6         -30.0267   -43.1209    99.1502 H6            1 RES     
    1933 H6         -29.5568   -40.8082    98.2786 H6            1 RES     
    1934 H6         -28.1503   -41.9249    98.1019 H6            1 RES     
    1935 H6         -29.1338   -41.5147    96.6651 H6            1 RES     
    1936 H6         -30.8244   -47.1861    93.4307 H6            1 RES     
    1937 H6         -30.3540   -46.3703    94.9485 H6            1 RES     
    1938 H6         -29.8205   -44.2837    93.3975 H6            1 RES     
    1939 H6         -30.1507   -45.3393    92.0166 H6            1 RES     
    1940 H6         -27.7759   -45.0367    92.5235 H6            1 RES     
    1941 H6         -27.9732   -45.6829    94.1885 H6            1 RES     
    1942 H6         -28.4232   -47.3033    91.5807 H6            1 RES     
    1943 H6         -28.5780   -47.9154    93.2686 H6            1 RES     
    1944 H6         -26.1482   -47.4292    93.6848 H6            1 RES     
    1945 H6         -26.4524   -48.6233    92.3734 H6            1 RES     
    1946 H6         -25.7631   -45.6474    91.9255 H6            1 RES     
    1947 H6         -26.0696   -46.8602    90.6317 H6            1 RES     
    1948 H6         -23.6603   -46.3672    91.0063 H6            1 RES     
    1949 H6         -23.7802   -46.8994    92.7202 H6            1 RES     
    1950 H6         -24.3029   -49.2373    91.9354 H6            1 RES     
    1951 H6         -22.7611   -48.6329    91.2455 H6            1 RES     
    1952 H6         -24.2411   -48.6621    90.2167 H6            1 RES     
    1953 C0         -45.7005   -50.6937    88.1595 C0            1 RES     
    1954 C0         -47.1371   -50.1638    87.7614 C0            1 RES     
    1955 C0         -47.1144   -48.8296    87.5313 C0            1 RES     
    1956 S1         -48.5934   -48.1890    87.0634 S1            1 RES     
    1957 C0         -49.3804   -49.6936    87.1297 C0            1 RES     
    1958 C0         -48.4649   -50.6440    87.6040 C0            1 RES     
    1959 C0         -45.8293   -48.3175    87.8325 C0            1 RES     
    1960 C0         -45.0479   -49.3075    88.1998 C0            1 RES     
    1961 C0         -43.8009   -48.8138    88.7132 C0            1 RES     
    1962 C0         -43.7561   -47.4315    88.7009 C0            1 RES     
    1963 S1         -45.2128   -46.6508    87.9843 S1            1 RES     
    1964 H2         -48.7716   -51.6435    87.7735 H2            1 RES     
    1965 H2         -43.0779   -49.4201    89.1713 H2            1 RES     
    1966 N3         -52.4522   -51.6355    86.0184 N3            1 RES     
    1967 C0         -51.2207   -51.3336    86.5172 C0            1 RES     
    1968 C0         -50.7810   -49.9910    86.6632 C0            1 RES     
    1969 C0         -51.6969   -48.9892    86.2756 C0            1 RES     
    1970 N3         -51.4581   -47.6539    86.3482 N3            1 RES     
    1971 S1         -52.8623   -47.0056    85.7702 S1            1 RES     
    1972 N3         -53.7897   -48.3200    85.4098 N3            1 RES     
    1973 C0         -52.9762   -49.3511    85.7605 C0            1 RES     
    1974 C0         -53.3358   -50.6816    85.6350 C0            1 RES     
    1975 H4         -50.5833   -52.1571    86.7647 H4            1 RES     
    1976 C5         -52.4009   -49.2736    79.6178 C5            1 RES     
    1977 C5         -52.0958   -48.7033    81.0029 C5            1 RES     
    1978 C5         -51.5432   -49.7542    81.9807 C5            1 RES     
    1979 C5         -50.1598   -50.2967    81.5777 C5            1 RES     
    1980 C5         -49.6449   -51.3081    82.6132 C5            1 RES     
    1981 C5         -48.1975   -51.7469    82.2999 C5            1 RES     
    1982 C5         -47.5744   -52.7285    83.3280 C5            1 RES     
    1983 C5         -47.7341   -52.1947    84.7526 C5            1 RES     
    1984 C5         -46.8385   -52.8046    85.8601 C5            1 RES     
    1985 C5         -47.1015   -54.2844    86.3391 C5            1 RES     
    1986 C5         -48.4156   -54.2529    87.1677 C5            1 RES     
    1987 C5         -49.0918   -55.4105    87.9118 C5            1 RES     
    1988 C5         -50.3478   -54.7657    88.5855 C5            1 RES     
    1989 C5         -51.2571   -55.6655    89.4206 C5            1 RES     
    1990 C5         -50.6207   -56.1061    90.7330 C5            1 RES     
    1991 C5         -45.4155   -52.2276    85.8429 C5            1 RES     
    1992 C0         -44.8925   -51.8376    87.2859 C0            1 RES     
    1993 C5         -43.3032   -51.8642    87.2776 C5            1 RES     
    1994 C5         -42.5761   -52.7492    88.3494 C5            1 RES     
    1995 C5         -42.3280   -52.0356    89.7097 C5            1 RES     
    1996 C5         -41.1584   -51.0228    89.7185 C5            1 RES     
    1997 C5         -41.1225   -50.1387    90.9806 C5            1 RES     
    1998 C5         -40.7292   -50.8602    92.2792 C5            1 RES     
    1999 C5         -39.2993   -51.4347    92.2886 C5            1 RES     
    2000 C5         -38.2196   -50.3702    92.0692 C5            1 RES     
    2001 C5         -41.2838   -53.4667    87.7966 C5            1 RES     
    2002 C5         -40.2960   -52.6058    86.9616 C5            1 RES     
    2003 C5         -38.9487   -53.2955    86.6502 C5            1 RES     
    2004 C5         -39.0497   -54.5816    85.8061 C5            1 RES     
    2005 C5         -37.6679   -55.1963    85.4735 C5            1 RES     
    2006 C5         -36.8116   -54.3204    84.5325 C5            1 RES     
    2007 C5         -35.4297   -54.9180    84.2054 C5            1 RES     
    2008 C5         -35.4910   -56.2283    83.4205 C5            1 RES     
    2009 H6         -51.4791   -49.6357    79.1197 H6            1 RES     
    2010 H6         -52.8439   -48.4792    78.9808 H6            1 RES     
    2011 H6         -53.1291   -50.1082    79.7004 H6            1 RES     
    2012 H6         -51.3818   -47.8559    80.9098 H6            1 RES     
    2013 H6         -53.0460   -48.3068    81.4230 H6            1 RES     
    2014 H6         -51.4487   -49.2645    82.9759 H6            1 RES     
    2015 H6         -52.2704   -50.5893    82.0754 H6            1 RES     
    2016 H6         -49.4540   -49.4379    81.5194 H6            1 RES     
    2017 H6         -50.2016   -50.7944    80.5873 H6            1 RES     
    2018 H6         -49.6684   -50.7996    83.6006 H6            1 RES     
    2019 H6         -50.3156   -52.1931    82.6468 H6            1 RES     
    2020 H6         -48.1468   -52.2061    81.2894 H6            1 RES     
    2021 H6         -47.5694   -50.8278    82.2871 H6            1 RES     
    2022 H6         -48.0435   -53.7338    83.2651 H6            1 RES     
    2023 H6         -46.4973   -52.8241    83.0714 H6            1 RES     
    2024 H6         -48.8002   -52.2849    85.0330 H6            1 RES     
    2025 H6         -47.5146   -51.1028    84.7366 H6            1 RES     
    2026 H6         -47.1513   -52.2809    86.6888 H6            1 RES     
    2027 H6         -47.1404   -54.9820    85.4762 H6            1 RES     
    2028 H6         -46.2902   -54.6085    87.0277 H6            1 RES     
    2029 H6         -48.1751   -53.5768    88.0097 H6            1 RES     
    2030 H6         -49.1856   -53.8456    86.4909 H6            1 RES     
    2031 H6         -48.4036   -55.8329    88.6756 H6            1 RES     
    2032 H6         -49.4009   -56.2065    87.2032 H6            1 RES     
    2033 H6         -50.0405   -53.9105    89.2329 H6            1 RES     
    2034 H6         -50.9874   -54.3502    87.7760 H6            1 RES     
    2035 H6         -51.5893   -56.5374    88.8215 H6            1 RES     
    2036 H6         -52.1567   -55.0634    89.6865 H6            1 RES     
    2037 H6         -50.3302   -55.2168    91.3355 H6            1 RES     
    2038 H6         -49.7301   -56.7372    90.5481 H6            1 RES     
    2039 H6         -51.3661   -56.6873    91.3170 H6            1 RES     
    2040 H6         -45.3579   -51.2817    85.2620 H6            1 RES     
    2041 H6         -44.7933   -52.9757    85.3058 H6            1 RES     
    2042 H6         -43.0386   -52.3907    86.3410 H6            1 RES     
    2043 H6         -42.8415   -50.8685    87.1251 H6            1 RES     
    2044 H6         -43.2754   -53.5847    88.5791 H6            1 RES     
    2045 H6         -43.2806   -51.5485    90.0054 H6            1 RES     
    2046 H6         -42.0989   -52.8024    90.4811 H6            1 RES     
    2047 H6         -40.1871   -51.5418    89.6107 H6            1 RES     
    2048 H6         -41.2541   -50.3491    88.8464 H6            1 RES     
    2049 H6         -40.4125   -49.3046    90.8070 H6            1 RES     
    2050 H6         -42.1171   -49.6719    91.1332 H6            1 RES     
    2051 H6         -41.4539   -51.6750    92.4872 H6            1 RES     
    2052 H6         -40.8074   -50.1239    93.1089 H6            1 RES     
    2053 H6         -39.1910   -52.2313    91.5241 H6            1 RES     
    2054 H6         -39.1287   -51.8977    93.2839 H6            1 RES     
    2055 H6         -38.3095   -49.5633    92.8276 H6            1 RES     
    2056 H6         -37.2159   -50.8345    92.1608 H6            1 RES     
    2057 H6         -38.2902   -49.9291    91.0536 H6            1 RES     
    2058 H6         -41.6125   -54.2835    87.1184 H6            1 RES     
    2059 H6         -40.7597   -53.9470    88.6514 H6            1 RES     
    2060 H6         -40.0278   -51.6783    87.4846 H6            1 RES     
    2061 H6         -40.7762   -52.3010    86.0074 H6            1 RES     
    2062 H6         -38.3433   -52.5482    86.0999 H6            1 RES     
    2063 H6         -38.4260   -53.5265    87.6047 H6            1 RES     
    2064 H6         -39.5921   -54.3765    84.8576 H6            1 RES     
    2065 H6         -39.6230   -55.3351    86.3833 H6            1 RES     
    2066 H6         -37.1113   -55.3950    86.4156 H6            1 RES     
    2067 H6         -37.8539   -56.1711    84.9718 H6            1 RES     
    2068 H6         -36.6184   -53.3420    85.0153 H6            1 RES     
    2069 H6         -37.3647   -54.1399    83.5850 H6            1 RES     
    2070 H6         -34.8775   -54.1796    83.5828 H6            1 RES     
    2071 H6         -34.8538   -55.0743    85.1429 H6            1 RES     
    2072 H6         -35.9741   -57.0301    84.0139 H6            1 RES     
    2073 H6         -34.4579   -56.5587    83.1787 H6            1 RES     
    2074 H6         -36.0453   -56.0831    82.4690 H6            1 RES     
    2075 C0         -57.5061   -53.7778    84.1982 C0            1 RES     
    2076 C0         -58.8388   -52.9254    84.1995 C0            1 RES     
    2077 C0         -58.5658   -51.5999    84.2459 C0            1 RES     
    2078 S1         -59.9263   -50.6177    84.2108 S1            1 RES     
    2079 C0         -60.9980   -51.9332    84.1192 C0            1 RES     
    2080 C0         -60.2469   -53.1142    84.2054 C0            1 RES     
    2081 C0         -57.1710   -51.4072    84.3926 C0            1 RES     
    2082 C0         -56.5736   -52.5772    84.3938 C0            1 RES     
    2083 C0         -55.1882   -52.4458    84.7479 C0            1 RES     
    2084 C0         -54.8513   -51.1300    85.0088 C0            1 RES     
    2085 S1         -56.1969   -49.9587    84.7593 S1            1 RES     
    2086 H2         -60.7317   -54.0559    84.2236 H2            1 RES     
    2087 H2         -54.5519   -53.2606    84.9256 H2            1 RES     
    2088 N3         -64.5435   -52.9868    83.2464 N3            1 RES     
    2089 C0         -63.2160   -53.0325    83.5505 C0            1 RES     
    2090 C0         -62.4830   -51.8613    83.8796 C0            1 RES     
    2091 C0         -63.2106   -50.6517    83.8870 C0            1 RES     
    2092 N3         -62.6839   -49.4349    84.1827 N3            1 RES     
    2093 S1         -63.9867   -48.4323    84.0292 S1            1 RES     
    2094 N3         -65.2164   -49.4402    83.5936 N3            1 RES     
    2095 C0         -64.5994   -50.6511    83.5644 C0            1 RES     
    2096 C0         -65.2495   -51.8295    83.2421 C0            1 RES     
    2097 H4         -62.7400   -53.9896    83.4982 H4            1 RES     
    2098 C5         -64.9345   -49.2185    77.5723 C5            1 RES     
    2099 C5         -64.3135   -49.0561    78.9596 C5            1 RES     
    2100 C5         -63.8600   -50.3892    79.5785 C5            1 RES     
    2101 C5         -62.6995   -51.0542    78.8156 C5            1 RES     
    2102 C5         -62.2655   -52.3566    79.5052 C5            1 RES     
    2103 C5         -61.0078   -52.9549    78.8373 C5            1 RES     
    2104 C5         -60.4641   -54.2461    79.5050 C5            1 RES     
    2105 C5         -60.2938   -54.0465    81.0120 C5            1 RES     
    2106 C5         -59.3957   -55.0492    81.7794 C5            1 RES     
    2107 C5         -59.8951   -56.5308    81.9885 C5            1 RES     
    2108 C5         -61.0350   -56.4674    83.0426 C5            1 RES     
    2109 C5         -61.8255   -57.6318    83.6511 C5            1 RES     
    2110 C5         -62.8011   -56.9558    84.6702 C5            1 RES     
    2111 C5         -63.7480   -57.8547    85.4633 C5            1 RES     
    2112 C5         -63.0339   -58.6989    86.5115 C5            1 RES     
    2113 C5         -57.9008   -54.7430    81.6072 C5            1 RES     
    2114 C0         -57.0992   -54.8047    82.9717 C0            1 RES     
    2115 C5         -55.5714   -55.1064    82.6533 C5            1 RES     
    2116 C5         -54.9001   -56.3340    83.3626 C5            1 RES     
    2117 C5         -54.3071   -56.0187    84.7663 C5            1 RES     
    2118 C5         -52.9599   -55.2579    84.7565 C5            1 RES     
    2119 C5         -52.5499   -54.7193    86.1412 C5            1 RES     
    2120 C5         -52.1325   -55.7860    87.1656 C5            1 RES     
    2121 C5         -50.8731   -56.5876    86.7834 C5            1 RES     
    2122 C5         -49.6354   -55.7075    86.5822 C5            1 RES     
    2123 C5         -53.8871   -57.1144    82.4379 C5            1 RES     
    2124 C5         -52.8726   -56.2665    81.6219 C5            1 RES     
    2125 C5         -51.7650   -57.0875    80.9241 C5            1 RES     
    2126 C5         -52.2620   -58.0980    79.8712 C5            1 RES     
    2127 C5         -51.1081   -58.8484    79.1617 C5            1 RES     
    2128 C5         -50.2330   -57.9379    78.2722 C5            1 RES     
    2129 C5         -49.0745   -58.6731    77.5714 C5            1 RES     
    2130 C5         -49.5298   -59.7278    76.5628 C5            1 RES     
    2131 H6         -64.1954   -49.6077    76.8435 H6            1 RES     
    2132 H6         -65.2866   -48.2307    77.2074 H6            1 RES     
    2133 H6         -65.8039   -49.9081    77.6214 H6            1 RES     
    2134 H6         -63.4566   -48.3494    78.9057 H6            1 RES     
    2135 H6         -65.0843   -48.6107    79.6259 H6            1 RES     
    2136 H6         -63.5171   -50.1743    80.6155 H6            1 RES     
    2137 H6         -64.7267   -51.0823    79.6389 H6            1 RES     
    2138 H6         -61.8431   -50.3432    78.7990 H6            1 RES     
    2139 H6         -62.9925   -51.2870    77.7715 H6            1 RES     
    2140 H6         -62.0337   -52.1012    80.5612 H6            1 RES     
    2141 H6         -63.0973   -53.0927    79.4860 H6            1 RES     
    2142 H6         -61.2063   -53.1625    77.7639 H6            1 RES     
    2143 H6         -60.2068   -52.1837    78.8916 H6            1 RES     
    2144 H6         -61.1412   -55.1095    79.3301 H6            1 RES     
    2145 H6         -59.4823   -54.4651    79.0325 H6            1 RES     
    2146 H6         -61.3011   -54.0127    81.4675 H6            1 RES     
    2147 H6         -59.8508   -53.0379    81.1768 H6            1 RES     
    2148 H6         -59.4634   -54.6909    82.7416 H6            1 RES     
    2149 H6         -60.2092   -56.9855    81.0255 H6            1 RES     
    2150 H6         -59.0792   -57.1461    82.4280 H6            1 RES     
    2151 H6         -60.5339   -56.0636    83.9424 H6            1 RES     
    2152 H6         -61.7915   -55.7827    82.6235 H6            1 RES     
    2153 H6         -61.1383   -58.3373    84.1664 H6            1 RES     
    2154 H6         -62.3987   -58.1700    82.8681 H6            1 RES     
    2155 H6         -62.2259   -56.3464    85.4069 H6            1 RES     
    2156 H6         -63.4495   -56.2545    84.1003 H6            1 RES     
    2157 H6         -64.3437   -58.4873    84.7744 H6            1 RES     
    2158 H6         -64.4488   -57.1851    86.0138 H6            1 RES     
    2159 H6         -62.4743   -58.0432    87.2152 H6            1 RES     
    2160 H6         -62.3360   -59.4139    86.0346 H6            1 RES     
    2161 H6         -63.7916   -59.2624    87.0969 H6            1 RES     
    2162 H6         -57.7288   -53.7113    81.2310 H6            1 RES     
    2163 H6         -57.5392   -55.4391    80.8199 H6            1 RES     
    2164 H6         -55.5667   -55.4333    81.5961 H6            1 RES     
    2165 H6         -54.9353   -54.1997    82.6209 H6            1 RES     
    2166 H6         -55.7200   -57.0644    83.5473 H6            1 RES     
    2167 H6         -55.0792   -55.4568    85.3321 H6            1 RES     
    2168 H6         -54.1358   -56.9747    85.3068 H6            1 RES     
    2169 H6         -52.1488   -55.8983    84.3609 H6            1 RES     
    2170 H6         -53.0372   -54.3903    84.0747 H6            1 RES     
    2171 H6         -51.7117   -54.0054    86.0081 H6            1 RES     
    2172 H6         -53.3881   -54.1354    86.5736 H6            1 RES     
    2173 H6         -52.9757   -56.4871    87.3386 H6            1 RES     
    2174 H6         -51.9281   -55.2660    88.1271 H6            1 RES     
    2175 H6         -51.0516   -57.1861    85.8665 H6            1 RES     
    2176 H6         -50.6602   -57.2963    87.6120 H6            1 RES     
    2177 H6         -49.4377   -55.1008    87.4918 H6            1 RES     
    2178 H6         -48.7518   -56.3486    86.3831 H6            1 RES     
    2179 H6         -49.7593   -55.0323    85.7105 H6            1 RES     
    2180 H6         -54.4793   -57.6763    81.6836 H6            1 RES     
    2181 H6         -53.3574   -57.8682    83.0603 H6            1 RES     
    2182 H6         -52.3381   -55.5515    82.2614 H6            1 RES     
    2183 H6         -53.4121   -55.6646    80.8599 H6            1 RES     
    2184 H6         -51.1019   -56.3487    80.4316 H6            1 RES     
    2185 H6         -51.1686   -57.6265    81.6931 H6            1 RES     
    2186 H6         -52.8820   -57.5818    79.1064 H6            1 RES     
    2187 H6         -52.8914   -58.8548    80.3820 H6            1 RES     
    2188 H6         -50.4739   -59.3595    79.9189 H6            1 RES     
    2189 H6         -51.5702   -59.6280    78.5173 H6            1 RES     
    2190 H6         -49.7661   -57.1516    78.8978 H6            1 RES     
    2191 H6         -50.8685   -57.4434    77.5054 H6            1 RES     
    2192 H6         -48.4755   -57.9164    77.0179 H6            1 RES     
    2193 H6         -48.4134   -59.1460    78.3291 H6            1 RES     
    2194 H6         -50.0799   -60.5503    77.0621 H6            1 RES     
    2195 H6         -48.6385   -60.1670    76.0652 H6            1 RES     
    2196 H6         -50.1745   -59.2661    75.7853 H6            1 RES     
    2197 C0         -70.1505   -53.7163    82.0327 C0            1 RES     
    2198 C0         -71.2551   -52.6687    82.4632 C0            1 RES     
    2199 C0         -70.7013   -51.4611    82.7251 C0            1 RES     
    2200 S1         -71.8104   -50.2762    83.1524 S1            1 RES     
    2201 C0         -73.1400   -51.3236    83.0024 C0            1 RES     
    2202 C0         -72.6544   -52.6041    82.7006 C0            1 RES     
    2203 C0         -69.2915   -51.5561    82.6375 C0            1 RES     
    2204 C0         -68.9646   -52.7789    82.2860 C0            1 RES     
    2205 C0         -67.5463   -52.9801    82.3868 C0            1 RES     
    2206 C0         -66.9013   -51.8439    82.8405 C0            1 RES     
    2207 S1         -67.9873   -50.4299    83.0975 S1            1 RES     
    2208 H2         -73.3210   -53.4232    82.6195 H2            1 RES     
    2209 H2         -67.0797   -53.9122    82.2695 H2            1 RES     
    2210 N3         -76.9178   -51.5021    82.6303 N3            1 RES     
    2211 C0         -75.6007   -51.8505    82.6582 C0            1 RES     
    2212 C0         -74.5940   -50.9380    83.0719 C0            1 RES     
    2213 C0         -75.0370   -49.6566    83.4648 C0            1 RES     
    2214 N3         -74.2248   -48.6565    83.8953 N3            1 RES     
    2215 S1         -75.2912   -47.4339    84.2019 S1            1 RES     
    2216 N3         -76.7584   -48.0781    83.8146 N3            1 RES     
    2217 C0         -76.4257   -49.3362    83.4217 C0            1 RES     
    2218 C0         -77.3529   -50.2717    82.9971 C0            1 RES     
    2219 H4         -75.3533   -52.8359    82.3219 H4            1 RES     
    2220 C5         -77.3282   -46.4853    78.0246 C5            1 RES     
    2221 C5         -76.4889   -46.7684    79.2705 C5            1 RES     
    2222 C5         -76.2445   -48.2686    79.5063 C5            1 RES     
    2223 C5         -75.3786   -48.9259    78.4159 C5            1 RES     
    2224 C5         -75.1359   -50.4102    78.7296 C5            1 RES     
    2225 C5         -74.1479   -51.0434    77.7252 C5            1 RES     
    2226 C5         -73.8002   -52.5309    77.9992 C5            1 RES     
    2227 C5         -73.3705   -52.7280    79.4539 C5            1 RES     
    2228 C5         -72.6041   -54.0256    79.8142 C5            1 RES     
    2229 C5         -73.3722   -55.4034    79.8093 C5            1 RES     
    2230 C5         -74.3037   -55.3936    81.0530 C5            1 RES     
    2231 C5         -75.2260   -56.5123    81.5519 C5            1 RES     
    2232 C5         -75.8731   -55.9377    82.8550 C5            1 RES     
    2233 C5         -76.8625   -56.8191    83.6152 C5            1 RES     
    2234 C5         -76.1985   -57.9998    84.3128 C5            1 RES     
    2235 C5         -71.1206   -53.9539    79.4244 C5            1 RES     
    2236 C0         -70.1582   -54.4773    80.5680 C0            1 RES     
    2237 C5         -68.7943   -54.9575    79.9078 C5            1 RES     
    2238 C5         -68.3036   -56.4165    80.2101 C5            1 RES     
    2239 C5         -67.4563   -56.5525    81.5082 C5            1 RES     
    2240 C5         -65.9942   -56.0592    81.3951 C5            1 RES     
    2241 C5         -65.2786   -55.9452    82.7555 C5            1 RES     
    2242 C5         -64.9522   -57.2809    83.4418 C5            1 RES     
    2243 C5         -63.9638   -58.1765    82.6700 C5            1 RES     
    2244 C5         -62.6102   -57.5045    82.4185 C5            1 RES     
    2245 C5         -67.6288   -57.1199    78.9691 C5            1 RES     
    2246 C5         -66.5885   -56.2935    78.1636 C5            1 RES     
    2247 C5         -65.7973   -57.1061    77.1140 C5            1 RES     
    2248 C5         -66.6488   -57.7345    75.9929 C5            1 RES     
    2249 C5         -65.7996   -58.4849    74.9375 C5            1 RES     
    2250 C5         -64.8914   -57.5570    74.1009 C5            1 RES     
    2251 C5         -64.0333   -58.2958    73.0562 C5            1 RES     
    2252 C5         -64.8473   -58.9842    71.9606 C5            1 RES     
    2253 H6         -76.8053   -46.8134    77.1039 H6            1 RES     
    2254 H6         -77.5110   -45.3931    77.9429 H6            1 RES     
    2255 H6         -78.3079   -47.0036    78.0983 H6            1 RES     
    2256 H6         -75.5184   -46.2304    79.1982 H6            1 RES     
    2257 H6         -77.0396   -46.3662    80.1488 H6            1 RES     
    2258 H6         -75.7142   -48.3696    80.4798 H6            1 RES     
    2259 H6         -77.2206   -48.7934    79.5896 H6            1 RES     
    2260 H6         -74.4021   -48.3927    78.3803 H6            1 RES     
    2261 H6         -75.8655   -48.8490    77.4223 H6            1 RES     
    2262 H6         -74.7016   -50.4576    79.7509 H6            1 RES     
    2263 H6         -76.0994   -50.9632    78.7209 H6            1 RES     
    2264 H6         -74.5425   -50.9520    76.6905 H6            1 RES     
    2265 H6         -73.2016   -50.4597    77.7806 H6            1 RES     
    2266 H6         -74.6644   -53.1957    77.7854 H6            1 RES     
    2267 H6         -72.9686   -52.7998    77.3126 H6            1 RES     
    2268 H6         -74.2687   -52.6275    80.0914 H6            1 RES     
    2269 H6         -72.7029   -51.8810    79.7324 H6            1 RES     
    2270 H6         -72.4508   -53.8999    80.8240 H6            1 RES     
    2271 H6         -73.9149   -55.5541    78.8525 H6            1 RES     
    2272 H6         -72.6508   -56.2386    79.9494 H6            1 RES     
    2273 H6         -73.6006   -55.3093    81.9029 H6            1 RES     
    2274 H6         -74.9498   -54.5074    80.9351 H6            1 RES     
    2275 H6         -74.6371   -57.4292    81.7711 H6            1 RES     
    2276 H6         -76.0102   -56.7401    80.8006 H6            1 RES     
    2277 H6         -75.0786   -55.6311    83.5760 H6            1 RES     
    2278 H6         -76.4336   -55.0187    82.5751 H6            1 RES     
    2279 H6         -77.6747   -57.1556    82.9394 H6            1 RES     
    2280 H6         -77.3148   -56.1874    84.4145 H6            1 RES     
    2281 H6         -75.4140   -57.6385    85.0145 H6            1 RES     
    2282 H6         -75.7477   -58.6919    83.5755 H6            1 RES     
    2283 H6         -76.9642   -58.5446    84.9055 H6            1 RES     
    2284 H6         -70.7896   -52.9089    79.2402 H6            1 RES     
    2285 H6         -71.0364   -54.4953    78.4575 H6            1 RES     
    2286 H6         -69.0158   -55.0195    78.8254 H6            1 RES     
    2287 H6         -67.9911   -54.1949    79.9392 H6            1 RES     
    2288 H6         -69.2242   -57.0146    80.3961 H6            1 RES     
    2289 H6         -67.9983   -56.0148    82.3139 H6            1 RES     
    2290 H6         -67.4154   -57.6243    81.7997 H6            1 RES     
    2291 H6         -65.4062   -56.7191    80.7293 H6            1 RES     
    2292 H6         -65.9842   -55.0547    80.9319 H6            1 RES     
    2293 H6         -64.3364   -55.3783    82.6121 H6            1 RES     
    2294 H6         -65.8994   -55.3433    83.4503 H6            1 RES     
    2295 H6         -65.8907   -57.8442    83.6269 H6            1 RES     
    2296 H6         -64.5017   -57.0482    84.4315 H6            1 RES     
    2297 H6         -64.3995   -58.4993    81.7021 H6            1 RES     
    2298 H6         -63.7873   -59.0878    83.2804 H6            1 RES     
    2299 H6         -62.1553   -57.1756    83.3773 H6            1 RES     
    2300 H6         -61.9234   -58.2245    81.9273 H6            1 RES     
    2301 H6         -62.7144   -56.6307    81.7427 H6            1 RES     
    2302 H6         -68.4321   -57.3738    78.2442 H6            1 RES     
    2303 H6         -67.1864   -58.0806    79.3116 H6            1 RES     
    2304 H6         -65.8250   -55.8559    78.8205 H6            1 RES     
    2305 H6         -67.0933   -55.4429    77.6581 H6            1 RES     
    2306 H6         -65.0719   -56.3994    76.6643 H6            1 RES     
    2307 H6         -65.2230   -57.9082    77.6282 H6            1 RES     
    2308 H6         -67.2501   -56.9510    75.4827 H6            1 RES     
    2309 H6         -67.3428   -58.4687    76.4500 H6            1 RES     
    2310 H6         -65.1846   -59.2642    75.4388 H6            1 RES     
    2311 H6         -66.5076   -58.9958    74.2489 H6            1 RES     
    2312 H6         -64.1801   -57.0360    74.7720 H6            1 RES     
    2313 H6         -65.5127   -56.7911    73.5874 H6            1 RES     
    2314 H6         -63.3749   -57.5462    72.5638 H6            1 RES     
    2315 H6         -63.3840   -59.0434    73.5605 H6            1 RES     
    2316 H6         -65.4806   -59.7924    72.3781 H6            1 RES     
    2317 H6         -64.1539   -59.4417    71.2224 H6            1 RES     
    2318 H6         -65.4860   -58.2454    71.4318 H6            1 RES     
    2319 C0         -82.6675   -50.9290    82.3924 C0            1 RES     
    2320 C0         -83.4467   -49.8369    83.2309 C0            1 RES     
    2321 C0         -82.6152   -48.8423    83.6219 C0            1 RES     
    2322 S1         -83.3699   -47.6174    84.4861 S1            1 RES     
    2323 C0         -84.8998   -48.3497    84.3840 C0            1 RES     
    2324 C0         -84.7491   -49.5865    83.7405 C0            1 RES     
    2325 C0         -81.2871   -49.1591    83.2480 C0            1 RES     
    2326 C0         -81.2846   -50.3011    82.5988 C0            1 RES     
    2327 C0         -79.9431   -50.7657    82.3825 C0            1 RES     
    2328 C0         -79.0104   -49.9008    82.9256 C0            1 RES     
    2329 S1         -79.7189   -48.4206    83.6685 S1            1 RES     
    2330 H2         -85.5798   -50.2331    83.6238 H2            1 RES     
    2331 H2         -79.7090   -51.7101    81.9907 H2            1 RES     
    2332 N3         -88.6410   -47.7703    84.7154 N3            1 RES     
    2333 C0         -87.4395   -48.3405    84.4186 C0            1 RES     
    2334 C0         -86.2112   -47.7432    84.8083 C0            1 RES     
    2335 C0         -86.3072   -46.5346    85.5314 C0            1 RES     
    2336 N3         -85.2455   -45.8235    85.9924 N3            1 RES     
    2337 S1         -85.9688   -44.5415    86.7402 S1            1 RES     
    2338 N3         -87.5805   -44.8081    86.5187 N3            1 RES     
    2339 C0         -87.5861   -45.9750    85.8216 C0            1 RES     
    2340 C0         -88.7441   -46.6057    85.4015 C0            1 RES     
    2341 H4         -87.4609   -49.2454    83.8476 H4            1 RES     
    2342 C5         -88.6455   -41.8111    81.3934 C5            1 RES     
    2343 C5         -87.7115   -42.5245    82.3709 C5            1 RES     
    2344 C5         -87.7612   -44.0567    82.2451 C5            1 RES     
    2345 C5         -87.2266   -44.5773    80.8982 C5            1 RES     
    2346 C5         -87.2631   -46.1124    80.8507 C5            1 RES     
    2347 C5         -86.5927   -46.6519    79.5680 C5            1 RES     
    2348 C5         -86.5343   -48.1991    79.4615 C5            1 RES     
    2349 C5         -85.9467   -48.8083    80.7357 C5            1 RES     
    2350 C5         -85.4307   -50.2678    80.6704 C5            1 RES     
    2351 C5         -86.4675   -51.4486    80.5326 C5            1 RES     
    2352 C5         -87.1813   -51.5716    81.9074 C5            1 RES     
    2353 C5         -88.2372   -52.5975    82.3357 C5            1 RES     
    2354 C5         -88.5469   -52.2447    83.8279 C5            1 RES     
    2355 C5         -89.5784   -53.0942    84.5682 C5            1 RES     
    2356 C5         -89.0864   -54.5043    84.8702 C5            1 RES     
    2357 C5         -84.0403   -50.3665    80.0261 C5            1 RES     
    2358 C0         -83.0539   -51.3068    80.8328 C0            1 RES     
    2359 C5         -81.9370   -51.8476    79.8395 C5            1 RES     
    2360 C5         -81.7302   -53.3993    79.7387 C5            1 RES     
    2361 C5         -80.7493   -53.9861    80.7946 C5            1 RES     
    2362 C5         -79.2488   -53.7438    80.5059 C5            1 RES     
    2363 C5         -78.3325   -54.0834    81.6978 C5            1 RES     
    2364 C5         -78.2013   -55.5798    82.0223 C5            1 RES     
    2365 C5         -77.5522   -56.4253    80.9093 C5            1 RES     
    2366 C5         -76.1387   -55.9605    80.5449 C5            1 RES     
    2367 C5         -81.4122   -53.8948    78.2746 C5            1 RES     
    2368 C5         -80.3500   -53.0960    77.4698 C5            1 RES     
    2369 C5         -79.9147   -53.7616    76.1448 C5            1 RES     
    2370 C5         -81.0368   -53.9466    75.1040 C5            1 RES     
    2371 C5         -80.5330   -54.5616    73.7751 C5            1 RES     
    2372 C5         -79.5812   -53.6353    72.9865 C5            1 RES     
    2373 C5         -79.0648   -54.2433    71.6684 C5            1 RES     
    2374 C5         -80.1597   -54.4983    70.6326 C5            1 RES     
    2375 H6         -88.3466   -41.9974    80.3423 H6            1 RES     
    2376 H6         -88.6008   -40.7161    81.5724 H6            1 RES     
    2377 H6         -89.6915   -42.1522    81.5467 H6            1 RES     
    2378 H6         -86.6700   -42.1632    82.2247 H6            1 RES     
    2379 H6         -88.0276   -42.2523    83.4017 H6            1 RES     
    2380 H6         -87.1270   -44.4773    83.0574 H6            1 RES     
    2381 H6         -88.8037   -44.4069    82.4055 H6            1 RES     
    2382 H6         -86.1749   -44.2303    80.7852 H6            1 RES     
    2383 H6         -87.8272   -44.1825    80.0534 H6            1 RES     
    2384 H6         -86.7030   -46.4764    81.7383 H6            1 RES     
    2385 H6         -88.3130   -46.4701    80.9147 H6            1 RES     
    2386 H6         -87.1070   -46.2497    78.6689 H6            1 RES     
    2387 H6         -85.5459   -46.2730    79.5584 H6            1 RES     
    2388 H6         -87.5425   -48.6322    79.2868 H6            1 RES     
    2389 H6         -85.8902   -48.4385    78.5880 H6            1 RES     
    2390 H6         -86.6984   -48.7064    81.5405 H6            1 RES     
    2391 H6         -85.0798   -48.1820    81.0473 H6            1 RES     
    2392 H6         -85.1066   -50.4145    81.6360 H6            1 RES     
    2393 H6         -87.1651   -51.2703    79.6875 H6            1 RES     
    2394 H6         -85.9287   -52.4062    80.3588 H6            1 RES     
    2395 H6         -86.3588   -51.8161    82.6056 H6            1 RES     
    2396 H6         -87.6332   -50.5837    82.0986 H6            1 RES     
    2397 H6         -87.8321   -53.6287    82.2465 H6            1 RES     
    2398 H6         -89.1542   -52.4994    81.7185 H6            1 RES     
    2399 H6         -87.6077   -52.2621    84.4301 H6            1 RES     
    2400 H6         -88.9331   -51.2020    83.8537 H6            1 RES     
    2401 H6         -90.5344   -53.1130    84.0067 H6            1 RES     
    2402 H6         -89.7621   -52.6013    85.5510 H6            1 RES     
    2403 H6         -88.1481   -54.4631    85.4669 H6            1 RES     
    2404 H6         -88.9080   -55.0693    83.9350 H6            1 RES     
    2405 H6         -89.8547   -55.0315    85.4753 H6            1 RES     
    2406 H6         -83.5245   -49.3822    79.9984 H6            1 RES     
    2407 H6         -84.2175   -50.6689    78.9714 H6            1 RES     
    2408 H6         -82.3240   -51.6110    78.8302 H6            1 RES     
    2409 H6         -80.9937   -51.2671    79.8707 H6            1 RES     
    2410 H6         -82.7196   -53.8539    79.9721 H6            1 RES     
    2411 H6         -81.0388   -53.5688    81.7816 H6            1 RES     
    2412 H6         -80.8958   -55.0865    80.8485 H6            1 RES     
    2413 H6         -78.9203   -54.3192    79.6196 H6            1 RES     
    2414 H6         -79.0928   -52.6758    80.2638 H6            1 RES     
    2415 H6         -77.3226   -53.6727    81.4948 H6            1 RES     
    2416 H6         -78.7007   -53.5647    82.6066 H6            1 RES     
    2417 H6         -79.2006   -55.9976    82.2655 H6            1 RES     
    2418 H6         -77.5704   -55.6715    82.9334 H6            1 RES     
    2419 H6         -78.1849   -56.4274    79.9981 H6            1 RES     
    2420 H6         -77.4864   -57.4718    81.2761 H6            1 RES     
    2421 H6         -75.4875   -55.9536    81.4451 H6            1 RES     
    2422 H6         -75.7018   -56.6520    79.7950 H6            1 RES     
    2423 H6         -76.1523   -54.9468    80.0940 H6            1 RES     
    2424 H6         -82.3492   -53.8245    77.6810 H6            1 RES     
    2425 H6         -81.1398   -54.9715    78.3229 H6            1 RES     
    2426 H6         -79.4222   -52.9676    78.0430 H6            1 RES     
    2427 H6         -80.7304   -52.0748    77.2544 H6            1 RES     
    2428 H6         -79.1295   -53.1066    75.7178 H6            1 RES     
    2429 H6         -79.4555   -54.7507    76.3651 H6            1 RES     
    2430 H6         -81.5254   -52.9715    74.8890 H6            1 RES     
    2431 H6         -81.7964   -54.6352    75.5266 H6            1 RES     
    2432 H6         -80.0316   -55.5330    73.9797 H6            1 RES     
    2433 H6         -81.4276   -54.7622    73.1458 H6            1 RES     
    2434 H6         -78.6839   -53.4215    73.6002 H6            1 RES     
    2435 H6         -80.0934   -52.6727    72.7685 H6            1 RES     
    2436 H6         -78.3415   -53.5254    71.2219 H6            1 RES     
    2437 H6         -78.5231   -55.1911    71.8759 H6            1 RES     
    2438 H6         -80.8823   -55.2587    70.9905 H6            1 RES     
    2439 H6         -79.6970   -54.8814    69.6977 H6            1 RES     
    2440 H6         -80.6968   -53.5549    70.3978 H6            1 RES     
    2441 C0         -94.1060   -46.1594    85.7070 C0            1 RES     
    2442 C0         -94.5013   -45.1787    86.8838 C0            1 RES     
    2443 C0         -93.4280   -44.4669    87.3020 C0            1 RES     
    2444 S1         -93.7674   -43.3697    88.5259 S1            1 RES     
    2445 C0         -95.4163   -43.7773    88.5724 C0            1 RES     
    2446 C0         -95.6301   -44.8325    87.6740 C0            1 RES     
    2447 C0         -92.2683   -44.9133    86.6237 C0            1 RES     
    2448 C0         -92.6059   -45.8507    85.7676 C0            1 RES     
    2449 C0         -91.4417   -46.4781    85.2079 C0            1 RES     
    2450 C0         -90.2760   -45.9441    85.7264 C0            1 RES     
    2451 S1         -90.5341   -44.5823    86.8769 S1            1 RES     
    2452 H2         -96.5878   -45.2771    87.5897 H2            1 RES     
    2453 H2         -91.4754   -47.3284    84.5946 H2            1 RES     
    2454 N3         -98.8563   -42.6473    89.7264 N3            1 RES     
    2455 C0         -97.8617   -43.3319    89.0948 C0            1 RES     
    2456 C0         -96.4904   -43.0689    89.3548 C0            1 RES     
    2457 C0         -96.2180   -42.0691    90.3134 C0            1 RES     
    2458 N3         -94.9727   -41.6851    90.6970 N3            1 RES     
    2459 S1         -95.2868   -40.5112    91.8147 S1            1 RES     
    2460 N3         -96.9328   -40.4310    91.8571 N3            1 RES     
    2461 C0         -97.2906   -41.3795    90.9514 C0            1 RES     
    2462 C0         -98.6057   -41.6795    90.6419 C0            1 RES     
    2463 H4         -98.1601   -44.0572    88.3665 H4            1 RES     
    2464 C5         -98.0778   -36.1635    87.7508 C5            1 RES     
    2465 C5         -97.1840   -37.2409    88.3648 C5            1 RES     
    2466 C5         -97.5780   -38.6662    87.9417 C5            1 RES     
    2467 C5         -97.3719   -38.9374    86.4400 C5            1 RES     
    2468 C5         -97.7423   -40.3865    86.0890 C5            1 RES     
    2469 C5         -97.3996   -40.7146    84.6191 C5            1 RES     
    2470 C5         -97.6896   -42.1778    84.1907 C5            1 RES     
    2471 C5         -97.0641   -43.1654    85.1772 C5            1 RES     
    2472 C5         -96.8873   -44.6348    84.7185 C5            1 RES     
    2473 C5         -98.1613   -45.5487    84.5448 C5            1 RES     
    2474 C5         -98.6738   -45.8678    85.9767 C5            1 RES     
    2475 C5         -99.8495   -46.7649    86.3817 C5            1 RES     
    2476 C5         -99.8527   -46.7280    87.9456 C5            1 RES     
    2477 C5        -100.9210   -47.5350    88.6814 C5            1 RES     
    2478 C5        -100.7027   -49.0401    88.5898 C5            1 RES     
    2479 C5         -95.6610   -44.8195    83.8130 C5            1 RES     
    2480 C0         -94.7902   -46.0823    84.2069 C0            1 RES     
    2481 C5         -93.9739   -46.5586    82.9288 C5            1 RES     
    2482 C5         -94.1208   -48.0535    82.4765 C5            1 RES     
    2483 C5         -93.1430   -49.0367    83.1827 C5            1 RES     
    2484 C5         -91.6848   -48.9994    82.6668 C5            1 RES     
    2485 C5         -90.6965   -49.7675    83.5663 C5            1 RES     
    2486 C5         -90.8417   -51.2973    83.5480 C5            1 RES     
    2487 C5         -90.5599   -51.9543    82.1829 C5            1 RES     
    2488 C5         -89.1494   -51.6712    81.6564 C5            1 RES     
    2489 C5         -94.1358   -48.2347    80.9090 C5            1 RES     
    2490 C5         -93.0582   -47.4664    80.0951 C5            1 RES     
    2491 C5         -92.9758   -47.8638    78.6040 C5            1 RES     
    2492 C5         -94.2527   -47.5969    77.7824 C5            1 RES     
    2493 C5         -94.0939   -47.9570    76.2847 C5            1 RES     
    2494 C5         -93.0933   -47.0513    75.5335 C5            1 RES     
    2495 C5         -92.9192   -47.4095    74.0451 C5            1 RES     
    2496 C5         -94.1840   -47.2153    73.2089 C5            1 RES     
    2497 H6         -97.9843   -36.1442    86.6464 H6            1 RES     
    2498 H6         -97.7742   -35.1677    88.1368 H6            1 RES     
    2499 H6         -99.1382   -36.3427    88.0291 H6            1 RES     
    2500 H6         -96.1226   -37.0433    88.0981 H6            1 RES     
    2501 H6         -97.2789   -37.1704    89.4704 H6            1 RES     
    2502 H6         -96.9355   -39.3722    88.5142 H6            1 RES     
    2503 H6         -98.6358   -38.8565    88.2244 H6            1 RES     
    2504 H6         -96.2989   -38.7632    86.2003 H6            1 RES     
    2505 H6         -97.9923   -38.2543    85.8245 H6            1 RES     
    2506 H6         -97.1480   -41.0431    86.7595 H6            1 RES     
    2507 H6         -98.8230   -40.5596    86.2791 H6            1 RES     
    2508 H6         -97.9431   -40.0266    83.9364 H6            1 RES     
    2509 H6         -96.3092   -40.5336    84.4861 H6            1 RES     
    2510 H6         -98.7815   -42.3736    84.1283 H6            1 RES     
    2511 H6         -97.2478   -42.3119    83.1798 H6            1 RES     
    2512 H6         -97.6494   -43.1276    86.1149 H6            1 RES     
    2513 H6         -96.0471   -42.7929    85.4375 H6            1 RES     
    2514 H6         -96.4632   -45.0611    85.5535 H6            1 RES     
    2515 H6         -98.9217   -45.0554    83.9036 H6            1 RES     
    2516 H6         -97.8713   -46.5167    84.0796 H6            1 RES     
    2517 H6         -97.8286   -46.4113    86.4394 H6            1 RES     
    2518 H6         -98.8708   -44.8902    86.4480 H6            1 RES     
    2519 H6         -99.6918   -47.7999    86.0085 H6            1 RES     
    2520 H6        -100.8052   -46.3639    85.9851 H6            1 RES     
    2521 H6         -98.8605   -47.0522    88.3399 H6            1 RES     
    2522 H6         -99.9990   -45.6703    88.2567 H6            1 RES     
    2523 H6        -101.9311   -47.2521    88.3219 H6            1 RES     
    2524 H6        -100.8479   -47.2653    89.7604 H6            1 RES     
    2525 H6         -99.6996   -49.3068    88.9911 H6            1 RES     
    2526 H6        -100.7892   -49.3891    87.5427 H6            1 RES     
    2527 H6        -101.4678   -49.5531    89.2109 H6            1 RES     
    2528 H6         -94.9567   -43.9628    83.8878 H6            1 RES     
    2529 H6         -96.0525   -44.8268    82.7729 H6            1 RES     
    2530 H6         -94.4462   -46.0250    82.0822 H6            1 RES     
    2531 H6         -92.9343   -46.1765    82.8960 H6            1 RES     
    2532 H6         -95.1388   -48.3700    82.7980 H6            1 RES     
    2533 H6         -93.1876   -48.8218    84.2708 H6            1 RES     
    2534 H6         -93.5117   -50.0753    83.0385 H6            1 RES     
    2535 H6         -91.6215   -49.3961    81.6358 H6            1 RES     
    2536 H6         -91.3417   -47.9488    82.6218 H6            1 RES     
    2537 H6         -89.6635   -49.5037    83.2611 H6            1 RES     
    2538 H6         -90.8070   -49.4233    84.6150 H6            1 RES     
    2539 H6         -91.8601   -51.5793    83.8882 H6            1 RES     
    2540 H6         -90.1174   -51.7118    84.2830 H6            1 RES     
    2541 H6         -91.3060   -51.6291    81.4289 H6            1 RES     
    2542 H6         -90.6658   -53.0530    82.3093 H6            1 RES     
    2543 H6         -88.3862   -51.9926    82.3971 H6            1 RES     
    2544 H6         -88.9861   -52.2302    80.7118 H6            1 RES     
    2545 H6         -89.0125   -50.5932    81.4323 H6            1 RES     
    2546 H6         -95.1133   -47.8625    80.5333 H6            1 RES     
    2547 H6         -94.0957   -49.3228    80.6840 H6            1 RES     
    2548 H6         -92.0502   -47.6423    80.4935 H6            1 RES     
    2549 H6         -93.2392   -46.3729    80.1692 H6            1 RES     
    2550 H6         -92.1407   -47.2740    78.1767 H6            1 RES     
    2551 H6         -92.7112   -48.9416    78.5261 H6            1 RES     
    2552 H6         -94.5479   -46.5286    77.8682 H6            1 RES     
    2553 H6         -95.0709   -48.2221    78.1938 H6            1 RES     
    2554 H6         -93.7870   -49.0215    76.1872 H6            1 RES     
    2555 H6         -95.0936   -47.8425    75.8113 H6            1 RES     
    2556 H6         -92.0904   -47.1499    75.9941 H6            1 RES     
    2557 H6         -93.4143   -45.9901    75.6184 H6            1 RES     
    2558 H6         -92.1333   -46.7442    73.6238 H6            1 RES     
    2559 H6         -92.5680   -48.4593    73.9475 H6            1 RES     
    2560 H6         -94.9915   -47.9004    73.5364 H6            1 RES     
    2561 H6         -93.9572   -47.4404    72.1446 H6            1 RES     
    2562 H6         -94.5357   -46.1642    73.2786 H6            1 RES     
    2563 C0        -103.6429   -40.3868    92.0549 C0            1 RES     
    2564 C0        -103.6413   -39.6601    93.4602 C0            1 RES     
    2565 C0        -102.3910   -39.2672    93.8006 C0            1 RES     
    2566 S1        -102.3034   -38.4502    95.2641 S1            1 RES     
    2567 C0        -103.9760   -38.5619    95.5422 C0            1 RES     
    2568 C0        -104.5407   -39.3193    94.5059 C0            1 RES     
    2569 C0        -101.4667   -39.7357    92.8360 C0            1 RES     
    2570 C0        -102.1195   -40.3689    91.8880 C0            1 RES     
    2571 C0        -101.2119   -41.0392    90.9996 C0            1 RES     
    2572 C0         -99.8955   -40.8562    91.3824 C0            1 RES     
    2573 S1         -99.6839   -39.7832    92.8137 S1            1 RES     
    2574 H2        -105.5729   -39.5564    94.5182 H2            1 RES     
    2575 H2        -101.5168   -41.7000    90.2442 H2            1 RES     
    2576 N3        -106.8860   -37.1540    97.5402 N3            1 RES     
    2577 C0        -106.1651   -37.8323    96.6036 C0            1 RES     
    2578 C0        -104.7463   -37.8828    96.6437 C0            1 RES     
    2579 C0        -104.1280   -37.2030    97.7152 C0            1 RES     
    2580 N3        -102.7868   -37.1453    97.9227 N3            1 RES     
    2581 S1        -102.6741   -36.2342    99.2950 S1            1 RES     
    2582 N3        -104.2402   -35.8794    99.6678 N3            1 RES     
    2583 C0        -104.9221   -36.5078    98.6739 C0            1 RES     
    2584 C0        -106.3019   -36.4907    98.5680 C0            1 RES     
    2585 H4        -106.7158   -38.3000    95.8141 H4            1 RES     
    2586 C5        -105.0405   -30.6260    96.8137 C5            1 RES     
    2587 C5        -104.3169   -31.9578    97.0124 C5            1 RES     
    2588 C5        -105.0644   -33.1502    96.3917 C5            1 RES     
    2589 C5        -105.1451   -33.0886    94.8553 C5            1 RES     
    2590 C5        -105.8643   -34.3249    94.2944 C5            1 RES     
    2591 C5        -105.8207   -34.3492    92.7506 C5            1 RES     
    2592 C5        -106.4766   -35.5947    92.0972 C5            1 RES     
    2593 C5        -105.9379   -36.8822    92.7233 C5            1 RES     
    2594 C5        -106.1490   -38.2082    91.9499 C5            1 RES     
    2595 C5        -107.6002   -38.8170    91.8415 C5            1 RES     
    2596 C5        -107.9518   -39.3723    93.2496 C5            1 RES     
    2597 C5        -109.2190   -40.1197    93.6815 C5            1 RES     
    2598 C5        -108.9833   -40.4555    95.1911 C5            1 RES     
    2599 C5        -110.0787   -41.2142    95.9383 C5            1 RES     
    2600 C5        -110.2030   -42.6688    95.5022 C5            1 RES     
    2601 C5        -105.1380   -38.3842    90.8076 C5            1 RES     
    2602 C0        -104.5088   -39.8369    90.7617 C0            1 RES     
    2603 C5        -104.0111   -40.1313    89.2810 C5            1 RES     
    2604 C5        -104.5392   -41.4264    88.5707 C5            1 RES     
    2605 C5        -103.7008   -42.7048    88.8609 C5            1 RES     
    2606 C5        -102.3608   -42.8020    88.0935 C5            1 RES     
    2607 C5        -101.4378   -43.9226    88.6110 C5            1 RES     
    2608 C5        -101.9076   -45.3545    88.3100 C5            1 RES     
    2609 C5        -101.9775   -45.7073    86.8116 C5            1 RES     
    2610 C5        -100.6327   -45.5587    86.0930 C5            1 RES     
    2611 C5        -104.8239   -41.2246    87.0318 C5            1 RES     
    2612 C5        -103.7394   -40.4859    86.1999 C5            1 RES     
    2613 C5        -103.9649   -40.5258    84.6717 C5            1 RES     
    2614 C5        -105.2623   -39.8520    84.1822 C5            1 RES     
    2615 C5        -105.4071   -39.8681    82.6406 C5            1 RES     
    2616 C5        -104.3583   -38.9994    81.9116 C5            1 RES     
    2617 C5        -104.4866   -39.0187    80.3764 C5            1 RES     
    2618 C5        -105.7900   -38.4130    79.8558 C5            1 RES     
    2619 H6        -105.1091   -30.3616    95.7394 H6            1 RES     
    2620 H6        -104.4774   -29.8194    97.3288 H6            1 RES     
    2621 H6        -106.0616   -30.6777    97.2480 H6            1 RES     
    2622 H6        -103.2891   -31.8915    96.5930 H6            1 RES     
    2623 H6        -104.2301   -32.1364    98.1065 H6            1 RES     
    2624 H6        -104.5102   -34.0732    96.6744 H6            1 RES     
    2625 H6        -106.0848   -33.2139    96.8274 H6            1 RES     
    2626 H6        -104.1072   -33.0531    94.4547 H6            1 RES     
    2627 H6        -105.6892   -32.1811    94.5224 H6            1 RES     
    2628 H6        -105.3318   -35.2157    94.6905 H6            1 RES     
    2629 H6        -106.9169   -34.3462    94.6491 H6            1 RES     
    2630 H6        -106.2993   -33.4346    92.3395 H6            1 RES     
    2631 H6        -104.7486   -34.3356    92.4505 H6            1 RES     
    2632 H6        -107.5822   -35.5757    92.2069 H6            1 RES     
    2633 H6        -106.2279   -35.5600    91.0145 H6            1 RES     
    2634 H6        -106.3566   -36.9664    93.7435 H6            1 RES     
    2635 H6        -104.8378   -36.7662    92.8539 H6            1 RES     
    2636 H6        -105.7072   -38.8881    92.5834 H6            1 RES     
    2637 H6        -108.3238   -38.0602    91.4722 H6            1 RES     
    2638 H6        -107.5957   -39.6822    91.1423 H6            1 RES     
    2639 H6        -107.1835   -40.1495    93.4212 H6            1 RES     
    2640 H6        -107.8635   -38.5157    93.9389 H6            1 RES     
    2641 H6        -109.3431   -41.0476    93.0823 H6            1 RES     
    2642 H6        -110.1148   -39.4751    93.5657 H6            1 RES     
    2643 H6        -108.0362   -41.0326    95.3133 H6            1 RES     
    2644 H6        -108.8525   -39.4932    95.7331 H6            1 RES     
    2645 H6        -111.0467   -40.6817    95.8446 H6            1 RES     
    2646 H6        -109.7911   -41.2257    97.0151 H6            1 RES     
    2647 H6        -109.2321   -43.1946    95.6406 H6            1 RES     
    2648 H6        -110.5158   -42.7383    94.4424 H6            1 RES     
    2649 H6        -110.9598   -43.1725    96.1409 H6            1 RES     
    2650 H6        -104.2637   -37.7068    90.9186 H6            1 RES     
    2651 H6        -105.6713   -38.0756    89.8827 H6            1 RES     
    2652 H6        -104.4781   -39.3377    88.6675 H6            1 RES     
    2653 H6        -102.9304   -39.9405    89.1278 H6            1 RES     
    2654 H6        -105.5424   -41.6269    89.0103 H6            1 RES     
    2655 H6        -103.5371   -42.7502    89.9579 H6            1 RES     
    2656 H6        -104.3000   -43.5984    88.5819 H6            1 RES     
    2657 H6        -102.5368   -42.9472    87.0107 H6            1 RES     
    2658 H6        -101.8117   -41.8475    88.1982 H6            1 RES     
    2659 H6        -100.4289   -43.7789    88.1735 H6            1 RES     
    2660 H6        -101.3160   -43.8235    89.7091 H6            1 RES     
    2661 H6        -102.9010   -45.5264    88.7747 H6            1 RES     
    2662 H6        -101.1882   -46.0519    88.7924 H6            1 RES     
    2663 H6        -102.7399   -45.0869    86.2971 H6            1 RES     
    2664 H6        -102.2959   -46.7685    86.7297 H6            1 RES     
    2665 H6         -99.8549   -46.1754    86.5923 H6            1 RES     
    2666 H6        -100.7340   -45.8971    85.0410 H6            1 RES     
    2667 H6        -100.3032   -44.4995    86.0711 H6            1 RES     
    2668 H6        -105.7438   -40.6086    86.9344 H6            1 RES     
    2669 H6        -105.0509   -42.2178    86.5866 H6            1 RES     
    2670 H6        -102.7447   -40.9251    86.3533 H6            1 RES     
    2671 H6        -103.6695   -39.4270    86.5283 H6            1 RES     
    2672 H6        -103.0956   -40.0070    84.2212 H6            1 RES     
    2673 H6        -103.9513   -41.5834    84.3267 H6            1 RES     
    2674 H6        -105.3064   -38.7999    84.5387 H6            1 RES     
    2675 H6        -106.1252   -40.4038    84.6069 H6            1 RES     
    2676 H6        -105.3527   -40.9157    82.2714 H6            1 RES     
    2677 H6        -106.4179   -39.4712    82.4012 H6            1 RES     
    2678 H6        -103.3429   -39.3787    82.1413 H6            1 RES     
    2679 H6        -104.4290   -37.9495    82.2708 H6            1 RES     
    2680 H6        -103.6477   -38.4205    79.9565 H6            1 RES     
    2681 H6        -104.3861   -40.0600    80.0016 H6            1 RES     
    2682 H6        -106.6677   -39.0039    80.1857 H6            1 RES     
    2683 H6        -105.7762   -38.4149    78.7446 H6            1 RES     
    2684 H6        -105.8947   -37.3636    80.2041 H6            1 RES     
    2685 C0        -110.6813   -34.7091   101.1543 C0            1 RES     
    2686 C0        -110.3168   -34.3489   102.6511 C0            1 RES     
    2687 C0        -108.9752   -34.2733   102.8180 C0            1 RES     
    2688 S1        -108.4999   -33.8557   104.3725 S1            1 RES     
    2689 C0        -110.0979   -33.7356   104.9377 C0            1 RES     
    2690 C0        -110.9581   -34.1142   103.8970 C0            1 RES     
    2691 C0        -108.3253   -34.6537   101.6192 C0            1 RES     
    2692 C0        -109.2309   -34.9192   100.7054 C0            1 RES     
    2693 C0        -108.6290   -35.5075    99.5419 C0            1 RES     
    2694 C0        -107.2622   -35.6541    99.6940 C0            1 RES     
    2695 S1        -106.6171   -35.0059   101.2460 S1            1 RES     
    2696 H2        -112.0037   -34.1630   104.0587 H2            1 RES     
    2697 H2        -109.1762   -35.9061    98.7406 H2            1 RES     
    2698 N3        -112.3120   -32.3555   107.7009 N3            1 RES     
    2699 C0        -111.8992   -32.9073   106.5254 C0            1 RES     
    2700 C0        -110.5339   -33.2136   106.2813 C0            1 RES     
    2701 C0        -109.6333   -32.9268   107.3298 C0            1 RES     
    2702 N3        -108.2951   -33.1559   107.2833 N3            1 RES     
    2703 S1        -107.7890   -32.6310   108.7646 S1            1 RES     
    2704 N3        -109.1704   -32.1064   109.4954 N3            1 RES     
    2705 C0        -110.1100   -32.3513   108.5440 C0            1 RES     
    2706 C0        -111.4544   -32.0682   108.7106 C0            1 RES     
    2707 H4        -112.6475   -33.0702   105.7778 H4            1 RES     
    2708 C5        -109.2421   -26.2688   107.9780 C5            1 RES     
    2709 C5        -108.7986   -27.7152   107.7588 C5            1 RES     
    2710 C5        -109.8670   -28.5761   107.0636 C5            1 RES     
    2711 C5        -110.1587   -28.1382   105.6166 C5            1 RES     
    2712 C5        -111.2002   -29.0602   104.9644 C5            1 RES     
    2713 C5        -111.3913   -28.7244   103.4690 C5            1 RES     
    2714 C5        -112.3874   -29.6443   102.7140 C5            1 RES     
    2715 C5        -112.0499   -31.1176   102.9497 C5            1 RES     
    2716 C5        -112.6513   -32.1638   101.9778 C5            1 RES     
    2717 C5        -114.1988   -32.4657   102.0283 C5            1 RES     
    2718 C5        -114.4490   -33.2692   103.3347 C5            1 RES     
    2719 C5        -115.7686   -33.8640   103.8403 C5            1 RES     
    2720 C5        -115.3898   -34.5847   105.1761 C5            1 RES     
    2721 C5        -116.4993   -35.2953   105.9492 C5            1 RES     
    2722 C5        -116.9946   -36.5597   105.2583 C5            1 RES     
    2723 C5        -111.8813   -32.2377   100.6513 C5            1 RES     
    2724 C0        -111.5909   -33.7249   100.1908 C0            1 RES     
    2725 C5        -111.3919   -33.7416    98.6138 C5            1 RES     
    2726 C5        -112.2835   -34.7179    97.7696 C5            1 RES     
    2727 C5        -111.7042   -36.1551    97.6272 C5            1 RES     
    2728 C5        -110.5445   -36.3003    96.6134 C5            1 RES     
    2729 C5        -109.8161   -37.6555    96.7051 C5            1 RES     
    2730 C5        -110.6202   -38.8699    96.2148 C5            1 RES     
    2731 C5        -110.9845   -38.8388    94.7178 C5            1 RES     
    2732 C5        -109.7602   -38.7616    93.8002 C5            1 RES     
    2733 C5        -112.7427   -34.1096    96.3878 C5            1 RES     
    2734 C5        -111.6604   -33.3961    95.5314 C5            1 RES     
    2735 C5        -112.1125   -33.0317    94.0994 C5            1 RES     
    2736 C5        -113.2935   -32.0444    94.0155 C5            1 RES     
    2737 C5        -113.6646   -31.6682    92.5599 C5            1 RES     
    2738 C5        -112.5738   -30.8488    91.8356 C5            1 RES     
    2739 C5        -112.9285   -30.4800    90.3824 C5            1 RES     
    2740 C5        -114.1347   -29.5494    90.2559 C5            1 RES     
    2741 H6        -109.4106   -25.7490   107.0135 H6            1 RES     
    2742 H6        -108.4499   -25.7191   108.5286 H6            1 RES     
    2743 H6        -110.1750   -26.2426   108.5803 H6            1 RES     
    2744 H6        -107.8539   -27.7322   107.1724 H6            1 RES     
    2745 H6        -108.5914   -28.1610   108.7562 H6            1 RES     
    2746 H6        -109.4873   -29.6223   107.0409 H6            1 RES     
    2747 H6        -110.8016   -28.5618   107.6648 H6            1 RES     
    2748 H6        -109.2079   -28.1909   105.0401 H6            1 RES     
    2749 H6        -110.5393   -27.0968   105.5861 H6            1 RES     
    2750 H6        -110.8178   -30.0987   105.0612 H6            1 RES     
    2751 H6        -112.1688   -28.9806   105.5026 H6            1 RES     
    2752 H6        -111.7187   -27.6690   103.3523 H6            1 RES     
    2753 H6        -110.3975   -28.8279   102.9779 H6            1 RES     
    2754 H6        -113.4347   -29.4587   103.0353 H6            1 RES     
    2755 H6        -112.2998   -29.3976   101.6339 H6            1 RES     
    2756 H6        -112.3214   -31.3670   103.9924 H6            1 RES     
    2757 H6        -110.9434   -31.2304   102.8876 H6            1 RES     
    2758 H6        -112.2763   -33.0413   102.3629 H6            1 RES     
    2759 H6        -114.7903   -31.5282   101.9666 H6            1 RES     
    2760 H6        -114.4826   -33.1270   101.1801 H6            1 RES     
    2761 H6        -113.8478   -34.1870   103.1937 H6            1 RES     
    2762 H6        -114.0789   -32.6299   104.1538 H6            1 RES     
    2763 H6        -116.1752   -34.5865   103.1000 H6            1 RES     
    2764 H6        -116.5130   -33.0637   104.0323 H6            1 RES     
    2765 H6        -114.5805   -35.3310   104.9942 H6            1 RES     
    2766 H6        -114.9778   -33.8169   105.8673 H6            1 RES     
    2767 H6        -117.3342   -34.5947   106.1534 H6            1 RES     
    2768 H6        -116.0650   -35.6124   106.9256 H6            1 RES     
    2769 H6        -116.1489   -37.2650   105.0979 H6            1 RES     
    2770 H6        -117.4681   -36.3197   104.2868 H6            1 RES     
    2771 H6        -117.7388   -37.0602   105.9142 H6            1 RES     
    2772 H6        -110.8759   -31.7699   100.7280 H6            1 RES     
    2773 H6        -112.4670   -31.6297    99.9284 H6            1 RES     
    2774 H6        -111.7639   -32.7558    98.2759 H6            1 RES     
    2775 H6        -110.3302   -33.7121    98.2982 H6            1 RES     
    2776 H6        -113.2303   -34.8382    98.3433 H6            1 RES     
    2777 H6        -111.3939   -36.4876    98.6397 H6            1 RES     
    2778 H6        -112.5151   -36.8376    97.2924 H6            1 RES     
    2779 H6        -110.9053   -36.1510    95.5781 H6            1 RES     
    2780 H6        -109.7947   -35.5094    96.8029 H6            1 RES     
    2781 H6        -108.8758   -37.5910    96.1208 H6            1 RES     
    2782 H6        -109.5151   -37.8430    97.7562 H6            1 RES     
    2783 H6        -111.5477   -38.9706    96.8166 H6            1 RES     
    2784 H6        -110.0034   -39.7768    96.3980 H6            1 RES     
    2785 H6        -111.6641   -37.9903    94.4964 H6            1 RES     
    2786 H6        -111.5308   -39.7775    94.4843 H6            1 RES     
    2787 H6        -109.0672   -39.6056    94.0048 H6            1 RES     
    2788 H6        -110.0857   -38.8173    92.7408 H6            1 RES     
    2789 H6        -109.2190   -37.8020    93.9315 H6            1 RES     
    2790 H6        -113.5138   -33.3368    96.5962 H6            1 RES     
    2791 H6        -113.2399   -34.9130    95.8018 H6            1 RES     
    2792 H6        -110.7711   -34.0264    95.3984 H6            1 RES     
    2793 H6        -111.3181   -32.4746    96.0488 H6            1 RES     
    2794 H6        -111.2286   -32.5812    93.6056 H6            1 RES     
    2795 H6        -112.3762   -33.9626    93.5503 H6            1 RES     
    2796 H6        -113.0587   -31.1162    94.5803 H6            1 RES     
    2797 H6        -114.1821   -32.5215    94.4765 H6            1 RES     
    2798 H6        -113.8904   -32.5911    91.9818 H6            1 RES     
    2799 H6        -114.5912   -31.0552    92.6048 H6            1 RES     
    2800 H6        -111.6404   -31.4436    91.7841 H6            1 RES     
    2801 H6        -112.3646   -29.9185    92.4077 H6            1 RES     
    2802 H6        -112.0526   -29.9556    89.9400 H6            1 RES     
    2803 H6        -113.1094   -31.4035    89.7913 H6            1 RES     
    2804 H6        -115.0598   -30.0387    90.6208 H6            1 RES     
    2805 H6        -114.2859   -29.2897    89.1860 H6            1 RES     
    2806 H6        -113.9601   -28.6112    90.8240 H6            1 RES     
    2807 C0        -114.9207   -30.2135   112.3966 C0            1 RES     
    2808 C0        -114.2707   -30.2887   113.8371 C0            1 RES     
    2809 C0        -112.9343   -30.4911   113.7552 C0            1 RES     
    2810 S1        -112.1565   -30.5445   115.2415 S1            1 RES     
    2811 C0        -113.5905   -30.2843   116.1152 C0            1 RES     
    2812 C0        -114.6558   -30.2481   115.2040 C0            1 RES     
    2813 C0        -112.5651   -30.6835   112.4022 C0            1 RES     
    2814 C0        -113.6314   -30.5615   111.6446 C0            1 RES     
    2815 C0        -113.3477   -30.9526   110.2923 C0            1 RES     
    2816 C0        -112.0366   -31.3682   110.1463 C0            1 RES     
    2817 S1        -111.0460   -31.2305   111.6444 S1            1 RES     
    2818 H2        -115.6521   -30.1500   115.5500 H2            1 RES     
    2819 H2        -114.0796   -31.0473   109.5469 H2            1 RES     
    2820 N3        -115.0256   -29.2343   119.4739 N3            1 RES     
    2821 C0        -114.9184   -29.5546   118.1537 C0            1 RES     
    2822 C0        -113.7016   -30.0283   117.5950 C0            1 RES     
    2823 C0        -112.6157   -30.1611   118.4872 C0            1 RES     
    2824 N3        -111.3793   -30.6032   118.1393 N3            1 RES     
    2825 S1        -110.5595   -30.5423   119.5711 S1            1 RES     
    2826 N3        -111.6736   -29.9727   120.6445 N3            1 RES     
    2827 C0        -112.7737   -29.8161   119.8616 C0            1 RES     
    2828 C0        -113.9868   -29.3498   120.3372 C0            1 RES     
    2829 H4        -115.7863   -29.4016   117.5464 H4            1 RES     
    2830 C5        -110.7194   -24.0221   120.3896 C5            1 RES     
    2831 C5        -110.6325   -25.4296   119.7997 C5            1 RES     
    2832 C5        -111.9509   -25.9000   119.1621 C5            1 RES     
    2833 C5        -112.3528   -25.0867   117.9179 C5            1 RES     
    2834 C5        -113.6519   -25.6304   117.3040 C5            1 RES     
    2835 C5        -113.9855   -24.9208   115.9732 C5            1 RES     
    2836 C5        -115.2555   -25.4460   115.2523 C5            1 RES     
    2837 C5        -115.2096   -26.9687   115.1140 C5            1 RES     
    2838 C5        -116.1575   -27.6321   114.0833 C5            1 RES     
    2839 C5        -117.7089   -27.6616   114.3674 C5            1 RES     
    2840 C5        -117.9293   -28.6958   115.5060 C5            1 RES     
    2841 C5        -119.2561   -29.1532   116.1236 C5            1 RES     
    2842 C5        -118.8469   -30.2255   117.1867 C5            1 RES     
    2843 C5        -119.9561   -30.8938   117.9972 C5            1 RES     
    2844 C5        -120.8066   -31.8511   117.1716 C5            1 RES     
    2845 C5        -115.6257   -27.5225   112.6470 C5            1 RES     
    2846 C0        -115.7311   -28.8849   111.8465 C0            1 RES     
    2847 C5        -115.7754   -28.5611   110.2909 C5            1 RES     
    2848 C5        -116.9698   -29.1372   109.4527 C5            1 RES     
    2849 C5        -116.7385   -30.5780   108.9123 C5            1 RES     
    2850 C5        -115.7993   -30.6790   107.6869 C5            1 RES     
    2851 C5        -115.3720   -32.1232   107.3594 C5            1 RES     
    2852 C5        -116.4805   -33.0262   106.7958 C5            1 RES     
    2853 C5        -117.0467   -32.5771   105.4348 C5            1 RES     
    2854 C5        -115.9835   -32.4998   104.3345 C5            1 RES     
    2855 C5        -117.4873   -28.1474   108.3380 C5            1 RES     
    2856 C5        -116.4161   -27.4517   107.4533 C5            1 RES     
    2857 C5        -116.9863   -26.6843   106.2394 C5            1 RES     
    2858 C5        -117.9282   -25.5142   106.5864 C5            1 RES     
    2859 C5        -118.4212   -24.7440   105.3367 C5            1 RES     
    2860 C5        -117.2997   -23.9800   104.5988 C5            1 RES     
    2861 C5        -117.7780   -23.2203   103.3467 C5            1 RES     
    2862 C5        -118.7626   -22.0899   103.6461 C5            1 RES     
    2863 H6        -110.9134   -23.2667   119.6018 H6            1 RES     
    2864 H6        -109.7556   -23.7664   120.8781 H6            1 RES     
    2865 H6        -111.5257   -23.9767   121.1523 H6            1 RES     
    2866 H6        -109.8106   -25.4720   119.0520 H6            1 RES     
    2867 H6        -110.3804   -26.1288   120.6268 H6            1 RES     
    2868 H6        -111.8112   -26.9606   118.8545 H6            1 RES     
    2869 H6        -112.7616   -25.8655   119.9215 H6            1 RES     
    2870 H6        -111.5311   -25.1666   117.1712 H6            1 RES     
    2871 H6        -112.5023   -24.0178   118.1736 H6            1 RES     
    2872 H6        -113.4902   -26.7126   117.1122 H6            1 RES     
    2873 H6        -114.4908   -25.5125   118.0227 H6            1 RES     
    2874 H6        -114.0934   -23.8274   116.1388 H6            1 RES     
    2875 H6        -113.1205   -25.0771   115.2900 H6            1 RES     
    2876 H6        -116.1798   -25.1616   115.7996 H6            1 RES     
    2877 H6        -115.2777   -24.9690   114.2487 H6            1 RES     
    2878 H6        -115.3711   -27.4072   116.1164 H6            1 RES     
    2879 H6        -114.1745   -27.2555   114.8191 H6            1 RES     
    2880 H6        -115.9261   -28.6277   114.2025 H6            1 RES     
    2881 H6        -118.0889   -26.6476   114.6124 H6            1 RES     
    2882 H6        -118.2497   -28.0423   113.4728 H6            1 RES     
    2883 H6        -117.5657   -29.6446   115.0685 H6            1 RES     
    2884 H6        -117.3143   -28.3444   116.3516 H6            1 RES     
    2885 H6        -119.9124   -29.5965   115.3438 H6            1 RES     
    2886 H6        -119.7755   -28.3038   116.6136 H6            1 RES     
    2887 H6        -118.2518   -31.0370   116.7049 H6            1 RES     
    2888 H6        -118.1830   -29.7282   117.9275 H6            1 RES     
    2889 H6        -120.5824   -30.1267   118.4960 H6            1 RES     
    2890 H6        -119.4602   -31.5047   118.7867 H6            1 RES     
    2891 H6        -120.1644   -32.6349   116.7118 H6            1 RES     
    2892 H6        -121.3560   -31.3080   116.3785 H6            1 RES     
    2893 H6        -121.5353   -32.3547   117.8423 H6            1 RES     
    2894 H6        -114.5435   -27.2698   112.6229 H6            1 RES     
    2895 H6        -116.1681   -26.6674   112.1891 H6            1 RES     
    2896 H6        -115.9739   -27.4738   110.2385 H6            1 RES     
    2897 H6        -114.7905   -28.6439   109.7901 H6            1 RES     
    2898 H6        -117.8250   -29.2227   110.1607 H6            1 RES     
    2899 H6        -116.3604   -31.1906   109.7572 H6            1 RES     
    2900 H6        -117.7168   -31.0087   108.6076 H6            1 RES     
    2901 H6        -116.2688   -30.2272   106.7925 H6            1 RES     
    2902 H6        -114.8783   -30.0996   107.8860 H6            1 RES     
    2903 H6        -114.5365   -32.0874   106.6310 H6            1 RES     
    2904 H6        -114.9662   -32.6047   108.2726 H6            1 RES     
    2905 H6        -117.3087   -33.1030   107.5310 H6            1 RES     
    2906 H6        -116.0516   -34.0443   106.6686 H6            1 RES     
    2907 H6        -117.5543   -31.5948   105.5253 H6            1 RES     
    2908 H6        -117.8094   -33.3229   105.1244 H6            1 RES     
    2909 H6        -115.4644   -33.4761   104.2262 H6            1 RES     
    2910 H6        -116.4662   -32.2443   103.3685 H6            1 RES     
    2911 H6        -115.2364   -31.7089   104.5521 H6            1 RES     
    2912 H6        -118.0359   -27.3235   108.8433 H6            1 RES     
    2913 H6        -118.2256   -28.6888   107.7073 H6            1 RES     
    2914 H6        -115.7117   -28.1781   107.0267 H6            1 RES     
    2915 H6        -115.8122   -26.7542   108.0720 H6            1 RES     
    2916 H6        -116.1094   -26.2913   105.6874 H6            1 RES     
    2917 H6        -117.5211   -27.3971   105.5733 H6            1 RES     
    2918 H6        -117.4197   -24.8026   107.2726 H6            1 RES     
    2919 H6        -118.8202   -25.9240   107.1025 H6            1 RES     
    2920 H6        -118.9218   -25.4489   104.6372 H6            1 RES     
    2921 H6        -119.1783   -24.0067   105.6824 H6            1 RES     
    2922 H6        -116.5330   -24.6995   104.2492 H6            1 RES     
    2923 H6        -116.8144   -23.2637   105.2972 H6            1 RES     
    2924 H6        -116.8855   -22.7676   102.8606 H6            1 RES     
    2925 H6        -118.2374   -23.9306   102.6260 H6            1 RES     
    2926 H6        -119.7067   -22.4821   104.0744 H6            1 RES     
    2927 H6        -119.0111   -21.5612   102.7008 H6            1 RES     
    2928 H6        -118.3096   -21.3590   104.3490 H6            1 RES     
    2929 C0        -116.3934   -27.8463   124.9187 C0            1 RES     
    2930 C0        -115.5690   -28.3742   126.1616 C0            1 RES     
    2931 C0        -114.3338   -28.7821   125.7854 C0            1 RES     
    2932 S1        -113.3746   -29.3224   127.0522 S1            1 RES     
    2933 C0        -114.5747   -29.0302   128.2192 C0            1 RES     
    2934 C0        -115.7303   -28.5927   127.5561 C0            1 RES     
    2935 C0        -114.2182   -28.7092   124.3763 C0            1 RES     
    2936 C0        -115.3337   -28.2260   123.8784 C0            1 RES     
    2937 C0        -115.3431   -28.3281   122.4461 C0            1 RES     
    2938 C0        -114.1875   -28.9201   121.9697 C0            1 RES     
    2939 S1        -112.9801   -29.3179   123.2460 S1            1 RES     
    2940 H2        -116.6203   -28.4067   128.0994 H2            1 RES     
    2941 H2        -116.1802   -28.1133   121.8516 H2            1 RES     
    2942 N3        -115.2401   -28.5736   131.9328 N3            1 RES     
    2943 C0        -115.4000   -28.5848   130.5796 C0            1 RES     
    2944 C0        -114.4087   -29.1177   129.7133 C0            1 RES     
    2945 C0        -113.2567   -29.6467   130.3345 C0            1 RES     
    2946 N3        -112.2086   -30.2030   129.6732 N3            1 RES     
    2947 S1        -111.1925   -30.6284   130.9030 S1            1 RES     
    2948 N3        -111.9880   -30.1442   132.2633 N3            1 RES     
    2949 C0        -113.1326   -29.6160   131.7546 C0            1 RES     
    2950 C0        -114.1342   -29.0709   132.5388 C0            1 RES     
    2951 H4        -116.2951   -28.1424   130.1942 H4            1 RES     
    2952 C5        -109.8326   -24.5651   133.0465 C5            1 RES     
    2953 C5        -110.1367   -25.7850   132.1771 C5            1 RES     
    2954 C5        -111.6045   -25.8521   131.7221 C5            1 RES     
    2955 C5        -112.0025   -24.7091   130.7702 C5            1 RES     
    2956 C5        -113.4639   -24.8553   130.3194 C5            1 RES     
    2957 C5        -113.8310   -23.8028   129.2503 C5            1 RES     
    2958 C5        -115.2761   -23.9109   128.6949 C5            1 RES     
    2959 C5        -115.5776   -25.3410   128.2434 C5            1 RES     
    2960 C5        -116.7870   -25.5641   127.3008 C5            1 RES     
    2961 C5        -118.2495   -25.3881   127.8651 C5            1 RES     
    2962 C5        -118.5151   -26.6081   128.7901 C5            1 RES     
    2963 C5        -119.8028   -26.9595   129.5446 C5            1 RES     
    2964 C5        -119.4799   -28.3081   130.2685 C5            1 RES     
    2965 C5        -120.5740   -28.9450   131.1235 C5            1 RES     
    2966 C5        -121.7219   -29.5146   130.2992 C5            1 RES     
    2967 C5        -116.4621   -25.2113   125.8420 C5            1 RES     
    2968 C0        -116.9733   -26.3043   124.8164 C0            1 RES     
    2969 C5        -117.1767   -25.6177   123.3973 C5            1 RES     
    2970 C5        -118.5769   -25.7599   122.7045 C5            1 RES     
    2971 C5        -118.7413   -27.0486   121.8481 C5            1 RES     
    2972 C5        -118.0369   -27.0185   120.4708 C5            1 RES     
    2973 C5        -117.9813   -28.3954   119.7804 C5            1 RES     
    2974 C5        -119.3279   -28.9302   119.2682 C5            1 RES     
    2975 C5        -119.9798   -28.0786   118.1616 C5            1 RES     
    2976 C5        -119.0991   -27.9295   116.9170 C5            1 RES     
    2977 C5        -119.0298   -24.4587   121.9351 C5            1 RES     
    2978 C5        -117.9774   -23.7714   121.0218 C5            1 RES     
    2979 C5        -118.5433   -22.6499   120.1219 C5            1 RES     
    2980 C5        -119.1516   -21.4495   120.8740 C5            1 RES     
    2981 C5        -119.6476   -20.3304   119.9255 C5            1 RES     
    2982 C5        -118.5103   -19.6215   119.1573 C5            1 RES     
    2983 C5        -118.9949   -18.5145   118.2016 C5            1 RES     
    2984 C5        -119.6598   -17.3332   118.9081 C5            1 RES     
    2985 H6        -109.9749   -23.6223   132.4811 H6            1 RES     
    2986 H6        -108.7751   -24.6056   133.3827 H6            1 RES     
    2987 H6        -110.4889   -24.5617   133.9427 H6            1 RES     
    2988 H6        -109.4624   -25.7918   131.2928 H6            1 RES     
    2989 H6        -109.9204   -26.6937   132.7804 H6            1 RES     
    2990 H6        -111.7416   -26.8169   131.1841 H6            1 RES     
    2991 H6        -112.2678   -25.8576   132.6139 H6            1 RES     
    2992 H6        -111.3364   -24.7520   129.8794 H6            1 RES     
    2993 H6        -111.8807   -23.7224   131.2620 H6            1 RES     
    2994 H6        -113.5674   -25.8720   129.8840 H6            1 RES     
    2995 H6        -114.1426   -24.7665   131.1945 H6            1 RES     
    2996 H6        -113.6771   -22.7785   129.6525 H6            1 RES     
    2997 H6        -113.1300   -23.9412   128.3965 H6            1 RES     
    2998 H6        -116.0270   -23.6073   129.4556 H6            1 RES     
    2999 H6        -115.3438   -23.2129   127.8328 H6            1 RES     
    3000 H6        -115.6792   -25.9698   129.1475 H6            1 RES     
    3001 H6        -114.6828   -25.7262   127.7033 H6            1 RES     
    3002 H6        -116.7586   -26.5841   127.1681 H6            1 RES     
    3003 H6        -118.3635   -24.4109   128.3797 H6            1 RES     
    3004 H6        -118.9851   -25.4446   127.0326 H6            1 RES     
    3005 H6        -118.4313   -27.4743   128.1072 H6            1 RES     
    3006 H6        -117.7212   -26.5809   129.5555 H6            1 RES     
    3007 H6        -120.6466   -27.0828   128.8317 H6            1 RES     
    3008 H6        -120.0506   -26.1734   130.2876 H6            1 RES     
    3009 H6        -119.1497   -29.0733   129.5265 H6            1 RES     
    3010 H6        -118.6230   -28.1253   130.9535 H6            1 RES     
    3011 H6        -120.9413   -28.2209   131.8787 H6            1 RES     
    3012 H6        -120.1092   -29.8032   131.6619 H6            1 RES     
    3013 H6        -121.3371   -30.2668   129.5749 H6            1 RES     
    3014 H6        -122.2535   -28.7111   129.7537 H6            1 RES     
    3015 H6        -122.4341   -30.0276   130.9804 H6            1 RES     
    3016 H6        -115.3666   -25.1536   125.6627 H6            1 RES     
    3017 H6        -116.8708   -24.1904   125.6805 H6            1 RES     
    3018 H6        -117.1437   -24.5316   123.6064 H6            1 RES     
    3019 H6        -116.3172   -25.7502   122.7106 H6            1 RES     
    3020 H6        -119.3164   -25.8600   123.5310 H6            1 RES     
    3021 H6        -118.3823   -27.9009   122.4620 H6            1 RES     
    3022 H6        -119.8231   -27.2164   121.6556 H6            1 RES     
    3023 H6        -118.5258   -26.2921   119.7942 H6            1 RES     
    3024 H6        -116.9943   -26.6735   120.6031 H6            1 RES     
    3025 H6        -117.2744   -28.3345   118.9281 H6            1 RES     
    3026 H6        -117.5574   -29.1435   120.4813 H6            1 RES     
    3027 H6        -120.0355   -29.0331   120.1174 H6            1 RES     
    3028 H6        -119.1501   -29.9478   118.8566 H6            1 RES     
    3029 H6        -120.2466   -27.0727   118.5459 H6            1 RES     
    3030 H6        -120.9215   -28.5839   117.8582 H6            1 RES     
    3031 H6        -118.8224   -28.9275   116.5147 H6            1 RES     
    3032 H6        -119.6532   -27.3714   116.1342 H6            1 RES     
    3033 H6        -118.1764   -27.3564   117.1435 H6            1 RES     
    3034 H6        -119.3089   -23.6955   122.6932 H6            1 RES     
    3035 H6        -119.9516   -24.6969   121.3610 H6            1 RES     
    3036 H6        -117.5153   -24.4874   120.3291 H6            1 RES     
    3037 H6        -117.1538   -23.3576   121.6418 H6            1 RES     
    3038 H6        -117.6941   -22.2969   119.5037 H6            1 RES     
    3039 H6        -119.3104   -23.0792   119.4400 H6            1 RES     
    3040 H6        -118.4071   -21.0216   121.5800 H6            1 RES     
    3041 H6        -120.0242   -21.8074   121.4572 H6            1 RES     
    3042 H6        -120.3850   -20.7501   119.2065 H6            1 RES     
    3043 H6        -120.1701   -19.5755   120.5528 H6            1 RES     
    3044 H6        -117.9754   -20.3602   118.5281 H6            1 RES     
    3045 H6        -117.7855   -19.1880   119.8805 H6            1 RES     
    3046 H6        -118.1080   -18.1227   117.6559 H6            1 RES     
    3047 H6        -119.6967   -18.9415   117.4533 H6            1 RES     
    3048 H6        -120.5920   -17.6443   119.4206 H6            1 RES     
    3049 H6        -119.9264   -16.5599   118.1559 H6            1 RES     
    3050 H6        -118.9623   -16.8811   119.6448 H6            1 RES     
    3051 C0        -115.4601   -28.3013   137.7052 C0            1 RES     
    3052 C0        -114.5933   -29.2453   138.6329 C0            1 RES     
    3053 C0        -113.5432   -29.7620   137.9517 C0            1 RES     
    3054 S1        -112.5453   -30.7472   138.8739 S1            1 RES     
    3055 C0        -113.4694   -30.5350   140.2840 C0            1 RES     
    3056 C0        -114.5897   -29.7571   139.9582 C0            1 RES     
    3057 C0        -113.6241   -29.3778   136.5915 C0            1 RES     
    3058 C0        -114.6716   -28.6025   136.4259 C0            1 RES     
    3059 C0        -114.9141   -28.3582   135.0317 C0            1 RES     
    3060 C0        -113.9949   -29.0130   134.2321 C0            1 RES     
    3061 S1        -112.7255   -29.9077   135.1448 S1            1 RES     
    3062 H2        -115.3292   -29.5526   140.6885 H2            1 RES     
    3063 H2        -115.7643   -27.8652   134.6653 H2            1 RES     
    3064 N3        -113.4658   -30.8644   144.0700 N3            1 RES     
    3065 C0        -113.8225   -30.5256   142.7993 C0            1 RES     
    3066 C0        -113.1071   -31.0026   141.6689 C0            1 RES     
    3067 C0        -112.0160   -31.8573   141.9365 C0            1 RES     
    3068 N3        -111.2204   -32.4153   140.9873 N3            1 RES     
    3069 S1        -110.1484   -33.2919   141.8864 S1            1 RES     
    3070 N3        -110.6122   -33.0130   143.4436 N3            1 RES     
    3071 C0        -111.6798   -32.1870   143.2824 C0            1 RES     
    3072 C0        -112.4146   -31.6772   144.3384 C0            1 RES     
    3073 H4        -114.6493   -29.8546   142.6911 H4            1 RES     
    3074 C5        -107.2229   -28.2459   144.9175 C5            1 RES     
    3075 C5        -107.9056   -29.1517   143.8928 C5            1 RES     
    3076 C5        -109.4046   -28.8507   143.7240 C5            1 RES     
    3077 C5        -109.6853   -27.4628   143.1192 C5            1 RES     
    3078 C5        -111.1943   -27.2395   142.9370 C5            1 RES     
    3079 C5        -111.4818   -25.9156   142.1952 C5            1 RES     
    3080 C5        -112.9824   -25.6339   141.9173 C5            1 RES     
    3081 C5        -113.6459   -26.8403   141.2506 C5            1 RES     
    3082 C5        -115.0006   -26.6177   140.5323 C5            1 RES     
    3083 C5        -116.2920   -26.3275   141.3906 C5            1 RES     
    3084 C5        -116.6726   -27.6664   142.0813 C5            1 RES     
    3085 C5        -117.8797   -27.9559   142.9812 C5            1 RES     
    3086 C5        -117.7492   -29.4730   143.3397 C5            1 RES     
    3087 C5        -118.8156   -30.0930   144.2409 C5            1 RES     
    3088 C5        -120.1675   -30.2404   143.5538 C5            1 RES     
    3089 C5        -114.8270   -25.9909   139.1412 C5            1 RES     
    3090 C0        -115.7057   -26.7022   138.0321 C0            1 RES     
    3091 C5        -115.9650   -25.6734   136.8485 C5            1 RES     
    3092 C5        -117.4498   -25.3995   136.4231 C5            1 RES     
    3093 C5        -118.0105   -26.3986   135.3701 C5            1 RES     
    3094 C5        -117.5273   -26.1660   133.9188 C5            1 RES     
    3095 C5        -117.8698   -27.3273   132.9650 C5            1 RES     
    3096 C5        -119.3601   -27.4808   132.6228 C5            1 RES     
    3097 C5        -119.9710   -26.2901   131.8588 C5            1 RES     
    3098 C5        -119.2725   -26.0063   130.5252 C5            1 RES     
    3099 C5        -117.7227   -23.8942   136.0361 C5            1 RES     
    3100 C5        -116.6945   -23.2049   135.0972 C5            1 RES     
    3101 C5        -117.1342   -21.8204   134.5701 C5            1 RES     
    3102 C5        -117.3540   -20.7456   135.6532 C5            1 RES     
    3103 C5        -117.7339   -19.3642   135.0655 C5            1 RES     
    3104 C5        -116.5977   -18.7036   134.2541 C5            1 RES     
    3105 C5        -116.9702   -17.3339   133.6549 C5            1 RES     
    3106 C5        -117.2555   -16.2566   134.7012 C5            1 RES     
    3107 H6        -107.2424   -27.1858   144.5939 H6            1 RES     
    3108 H6        -106.1607   -28.5496   145.0291 H6            1 RES     
    3109 H6        -107.7236   -28.3406   145.9045 H6            1 RES     
    3110 H6        -107.3866   -29.0662   142.9131 H6            1 RES     
    3111 H6        -107.8019   -30.2011   144.2457 H6            1 RES     
    3112 H6        -109.8227   -29.6207   143.0374 H6            1 RES     
    3113 H6        -109.9146   -28.9516   144.7063 H6            1 RES     
    3114 H6        -109.1827   -27.4088   142.1274 H6            1 RES     
    3115 H6        -109.2841   -26.6582   143.7687 H6            1 RES     
    3116 H6        -111.5758   -28.0894   142.3319 H6            1 RES     
    3117 H6        -111.7015   -27.2437   143.9255 H6            1 RES     
    3118 H6        -111.0549   -25.0594   142.7603 H6            1 RES     
    3119 H6        -110.9605   -25.9678   141.2128 H6            1 RES     
    3120 H6        -113.5303   -25.3931   142.8535 H6            1 RES     
    3121 H6        -113.0260   -24.7503   141.2446 H6            1 RES     
    3122 H6        -113.7448   -27.6380   142.0102 H6            1 RES     
    3123 H6        -112.9439   -27.2367   140.4819 H6            1 RES     
    3124 H6        -115.2108   -27.5658   140.1919 H6            1 RES     
    3125 H6        -116.1172   -25.4961   142.1054 H6            1 RES     
    3126 H6        -117.1374   -26.0549   140.7209 H6            1 RES     
    3127 H6        -116.8777   -28.3465   141.2332 H6            1 RES     
    3128 H6        -115.7871   -27.9612   142.6693 H6            1 RES     
    3129 H6        -118.8262   -27.7566   142.4335 H6            1 RES     
    3130 H6        -117.8412   -27.3379   143.9021 H6            1 RES     
    3131 H6        -117.7035   -30.0857   142.4083 H6            1 RES     
    3132 H6        -116.7814   -29.6110   143.8702 H6            1 RES     
    3133 H6        -118.9039   -29.5163   145.1838 H6            1 RES     
    3134 H6        -118.4705   -31.1222   144.4940 H6            1 RES     
    3135 H6        -120.0636   -30.8544   142.6316 H6            1 RES     
    3136 H6        -120.5897   -29.2500   143.2957 H6            1 RES     
    3137 H6        -120.8643   -30.7676   144.2401 H6            1 RES     
    3138 H6        -113.7833   -26.0851   138.7705 H6            1 RES     
    3139 H6        -115.0273   -24.9056   139.2724 H6            1 RES     
    3140 H6        -115.6702   -24.6911   137.2639 H6            1 RES     
    3141 H6        -115.2647   -25.7874   135.9973 H6            1 RES     
    3142 H6        -118.0633   -25.5620   137.3381 H6            1 RES     
    3143 H6        -117.7552   -27.4216   135.7171 H6            1 RES     
    3144 H6        -119.1194   -26.3237   135.3587 H6            1 RES     
    3145 H6        -117.9441   -25.2256   133.5108 H6            1 RES     
    3146 H6        -116.4272   -26.0503   133.9159 H6            1 RES     
    3147 H6        -117.3000   -27.1904   132.0235 H6            1 RES     
    3148 H6        -117.5168   -28.2828   133.4044 H6            1 RES     
    3149 H6        -119.9400   -27.6570   133.5530 H6            1 RES     
    3150 H6        -119.4666   -28.3865   131.9864 H6            1 RES     
    3151 H6        -119.9570   -25.3736   132.4837 H6            1 RES     
    3152 H6        -121.0332   -26.5359   131.6453 H6            1 RES     
    3153 H6        -119.2781   -26.9127   129.8827 H6            1 RES     
    3154 H6        -119.8040   -25.1900   129.9936 H6            1 RES     
    3155 H6        -118.2256   -25.6740   130.6823 H6            1 RES     
    3156 H6        -117.7172   -23.2962   136.9729 H6            1 RES     
    3157 H6        -118.7486   -23.8240   135.6134 H6            1 RES     
    3158 H6        -116.5036   -23.8053   134.1978 H6            1 RES     
    3159 H6        -115.7192   -23.1010   135.6187 H6            1 RES     
    3160 H6        -116.3300   -21.4850   133.8855 H6            1 RES     
    3161 H6        -118.0675   -21.9342   133.9752 H6            1 RES     
    3162 H6        -116.4394   -20.6349   136.2752 H6            1 RES     
    3163 H6        -118.1870   -21.0733   136.3077 H6            1 RES     
    3164 H6        -118.6419   -19.4652   134.4313 H6            1 RES     
    3165 H6        -117.9846   -18.7004   135.9217 H6            1 RES     
    3166 H6        -116.3319   -19.3535   133.3970 H6            1 RES     
    3167 H6        -115.6983   -18.5881   134.8976 H6            1 RES     
    3168 H6        -116.1107   -16.9853   133.0404 H6            1 RES     
    3169 H6        -117.8497   -17.4413   132.9841 H6            1 RES     
    3170 H6        -118.1465   -16.5124   135.3087 H6            1 RES     
    3171 H6        -117.4588   -15.2924   134.1875 H6            1 RES     
    3172 H6        -116.3766   -16.1219   135.3666 H6            1 RES     
    3173 C0        -112.7675   -31.9370   149.7097 C0            1 RES     
    3174 C0        -111.9951   -33.2110   150.2418 C0            1 RES     
    3175 C0        -111.1922   -33.7268   149.2811 C0            1 RES     
    3176 S1        -110.3029   -35.0619   149.7745 S1            1 RES     
    3177 C0        -110.9416   -35.0324   151.3489 C0            1 RES     
    3178 C0        -111.9053   -34.0155   151.4094 C0            1 RES     
    3179 C0        -111.3891   -33.0225   148.0690 C0            1 RES     
    3180 C0        -112.2594   -32.0589   148.2688 C0            1 RES     
    3181 C0        -112.6473   -31.4519   147.0265 C0            1 RES     
    3182 C0        -112.0177   -32.0485   145.9492 C0            1 RES     
    3183 S1        -110.8483   -33.3424   146.3998 S1            1 RES     
    3184 H2        -112.4679   -33.8641   152.2940 H2            1 RES     
    3185 H2        -113.4171   -30.7449   146.9382 H2            1 RES     
    3186 N3        -110.4493   -36.2471   154.9160 N3            1 RES     
    3187 C0        -110.9091   -35.5590   153.8334 C0            1 RES     
    3188 C0        -110.4871   -35.8716   152.5137 C0            1 RES     
    3189 C0        -109.5766   -36.9428   152.3874 C0            1 RES     
    3190 N3        -109.0677   -37.3897   151.2098 N3            1 RES     
    3191 S1        -108.0871   -38.6286   151.6890 S1            1 RES     
    3192 N3        -108.2454   -38.6508   153.3297 N3            1 RES     
    3193 C0        -109.1236   -37.6364   153.5479 C0            1 RES     
    3194 C0        -109.5683   -37.2715   154.8066 C0            1 RES     
    3195 H4        -111.5801   -34.7474   154.0247 H4            1 RES     
    3196 C5        -103.7360   -35.0397   155.0647 C5            1 RES     
    3197 C5        -104.7402   -35.5422   154.0275 C5            1 RES     
    3198 C5        -106.1483   -34.9520   154.2144 C5            1 RES     
    3199 C5        -106.2121   -33.4331   153.9700 C5            1 RES     
    3200 C5        -107.6485   -32.9122   154.1302 C5            1 RES     
    3201 C5        -107.7528   -31.4207   153.7426 C5            1 RES     
    3202 C5        -109.1828   -30.8228   153.8210 C5            1 RES     
    3203 C5        -110.1797   -31.7009   153.0627 C5            1 RES     
    3204 C5        -111.5465   -31.0803   152.6783 C5            1 RES     
    3205 C5        -112.6047   -30.7808   153.8092 C5            1 RES     
    3206 C5        -113.1563   -32.1576   154.2729 C5            1 RES     
    3207 C5        -114.2510   -32.4365   155.3096 C5            1 RES     
    3208 C5        -114.3961   -33.9941   155.3200 C5            1 RES     
    3209 C5        -115.4253   -34.6138   156.2636 C5            1 RES     
    3210 C5        -116.8638   -34.3547   155.8334 C5            1 RES     
    3211 C5        -111.4503   -30.1815   151.4371 C5            1 RES     
    3212 C0        -112.6147   -30.4437   150.3961 C0            1 RES     
    3213 C5        -112.8200   -29.1342   149.5188 C5            1 RES     
    3214 C5        -114.2582   -28.5114   149.4511 C5            1 RES     
    3215 C5        -115.1686   -29.1177   148.3444 C5            1 RES     
    3216 C5        -114.8666   -28.6353   146.9056 C5            1 RES     
    3217 C5        -115.5865   -29.4583   145.8193 C5            1 RES     
    3218 C5        -117.1089   -29.2628   145.7455 C5            1 RES     
    3219 C5        -117.5573   -27.8366   145.3715 C5            1 RES     
    3220 C5        -117.0191   -27.3709   144.0150 C5            1 RES     
    3221 C5        -114.2572   -26.9334   149.4383 C5            1 RES     
    3222 C5        -113.2556   -26.2318   148.4799 C5            1 RES     
    3223 C5        -113.4623   -24.7068   148.3400 C5            1 RES     
    3224 C5        -113.2848   -23.8987   149.6408 C5            1 RES     
    3225 C5        -113.4433   -22.3727   149.4306 C5            1 RES     
    3226 C5        -112.3247   -21.7477   148.5680 C5            1 RES     
    3227 C5        -112.4803   -20.2315   148.3429 C5            1 RES     
    3228 C5        -112.3710   -19.4007   149.6215 C5            1 RES     
    3229 H6        -103.5760   -33.9466   154.9735 H6            1 RES     
    3230 H6        -102.7587   -35.5424   154.9062 H6            1 RES     
    3231 H6        -104.0940   -35.2770   156.0891 H6            1 RES     
    3232 H6        -104.3654   -35.3186   153.0047 H6            1 RES     
    3233 H6        -104.8122   -36.6468   154.1328 H6            1 RES     
    3234 H6        -106.8180   -35.4514   153.4787 H6            1 RES     
    3235 H6        -106.5173   -35.1925   155.2348 H6            1 RES     
    3236 H6        -105.8617   -33.2339   152.9324 H6            1 RES     
    3237 H6        -105.5568   -32.8888   154.6804 H6            1 RES     
    3238 H6        -108.2879   -33.5137   153.4494 H6            1 RES     
    3239 H6        -107.9932   -33.0622   155.1756 H6            1 RES     
    3240 H6        -107.0741   -30.8117   154.3775 H6            1 RES     
    3241 H6        -107.4056   -31.3285   152.6888 H6            1 RES     
    3242 H6        -109.5221   -30.7191   154.8740 H6            1 RES     
    3243 H6        -109.1353   -29.8111   153.3634 H6            1 RES     
    3244 H6        -110.3336   -32.6262   153.6486 H6            1 RES     
    3245 H6        -109.7001   -32.0200   152.1094 H6            1 RES     
    3246 H6        -112.0023   -31.8685   152.1989 H6            1 RES     
    3247 H6        -112.1527   -30.1869   154.6312 H6            1 RES     
    3248 H6        -113.4617   -30.2133   153.3840 H6            1 RES     
    3249 H6        -113.6250   -32.5700   153.3596 H6            1 RES     
    3250 H6        -112.2774   -32.7340   154.6075 H6            1 RES     
    3251 H6        -115.2032   -31.9503   155.0060 H6            1 RES     
    3252 H6        -113.9457   -32.0716   156.3121 H6            1 RES     
    3253 H6        -114.6205   -34.3662   154.2923 H6            1 RES     
    3254 H6        -113.4128   -34.4215   155.6155 H6            1 RES     
    3255 H6        -115.2481   -34.2713   157.3032 H6            1 RES     
    3256 H6        -115.2747   -35.7178   156.2310 H6            1 RES     
    3257 H6        -117.0310   -34.7405   154.8031 H6            1 RES     
    3258 H6        -117.0980   -33.2732   155.8682 H6            1 RES     
    3259 H6        -117.5480   -34.8995   156.5187 H6            1 RES     
    3260 H6        -110.5173   -30.3661   150.8618 H6            1 RES     
    3261 H6        -111.3925   -29.1406   151.8223 H6            1 RES     
    3262 H6        -112.2640   -28.3459   150.0611 H6            1 RES     
    3263 H6        -112.2939   -29.1636   148.5441 H6            1 RES     
    3264 H6        -114.7502   -28.7766   150.4142 H6            1 RES     
    3265 H6        -115.0895   -30.2223   148.4204 H6            1 RES     
    3266 H6        -116.2252   -28.8493   148.5615 H6            1 RES     
    3267 H6        -115.1285   -27.5669   146.7853 H6            1 RES     
    3268 H6        -113.7800   -28.7168   146.7153 H6            1 RES     
    3269 H6        -115.1461   -29.2036   144.8339 H6            1 RES     
    3270 H6        -115.3849   -30.5374   145.9789 H6            1 RES     
    3271 H6        -117.5692   -29.5505   146.7139 H6            1 RES     
    3272 H6        -117.4993   -29.9583   144.9706 H6            1 RES     
    3273 H6        -117.2556   -27.1118   146.1553 H6            1 RES     
    3274 H6        -118.6671   -27.8348   145.3204 H6            1 RES     
    3275 H6        -117.3130   -28.0834   143.2147 H6            1 RES     
    3276 H6        -117.4364   -26.3717   143.7727 H6            1 RES     
    3277 H6        -115.9139   -27.2741   144.0324 H6            1 RES     
    3278 H6        -113.9857   -26.5855   150.4583 H6            1 RES     
    3279 H6        -115.2953   -26.5863   149.2436 H6            1 RES     
    3280 H6        -113.3325   -26.6253   147.4576 H6            1 RES     
    3281 H6        -112.2146   -26.4272   148.8145 H6            1 RES     
    3282 H6        -112.7151   -24.3645   147.5967 H6            1 RES     
    3283 H6        -114.4756   -24.5108   147.9248 H6            1 RES     
    3284 H6        -112.2861   -24.1008   150.0850 H6            1 RES     
    3285 H6        -114.0626   -24.2214   150.3623 H6            1 RES     
    3286 H6        -114.4354   -22.1596   148.9754 H6            1 RES     
    3287 H6        -113.4170   -21.8979   150.4358 H6            1 RES     
    3288 H6        -112.3336   -22.2116   147.5618 H6            1 RES     
    3289 H6        -111.3365   -21.9477   149.0367 H6            1 RES     
    3290 H6        -111.6665   -19.9029   147.6590 H6            1 RES     
    3291 H6        -113.4516   -20.0206   147.8459 H6            1 RES     
    3292 H6        -113.1964   -19.6334   150.3237 H6            1 RES     
    3293 H6        -112.4372   -18.3218   149.3636 H6            1 RES     
    3294 H6        -111.3952   -19.5839   150.1191 H6            1 RES     
    3295 C0        -109.1712   -38.7339   159.9782 C0            1 RES     
    3296 C0        -108.6190   -40.2128   160.0816 C0            1 RES     
    3297 C0        -108.0958   -40.6180   158.9002 C0            1 RES     
    3298 S1        -107.4494   -42.1666   158.9316 S1            1 RES     
    3299 C0        -107.8274   -42.4005   160.5716 C0            1 RES     
    3300 C0        -108.5318   -41.2746   161.0216 C0            1 RES     
    3301 C0        -108.3145   -39.6226   157.9176 C0            1 RES     
    3302 C0        -108.9194   -38.5971   158.4725 C0            1 RES     
    3303 C0        -109.3478   -37.6540   157.4778 C0            1 RES     
    3304 C0        -109.0264   -38.0784   156.2013 C0            1 RES     
    3305 S1        -108.1071   -39.6265   156.1461 S1            1 RES     
    3306 H2        -108.9120   -41.2415   162.0097 H2            1 RES     
    3307 H2        -109.9531   -36.8227   157.6847 H2            1 RES     
    3308 N3        -107.0847   -44.4947   163.6547 N3            1 RES     
    3309 C0        -107.5416   -43.4996   162.8435 C0            1 RES     
    3310 C0        -107.3958   -43.5586   161.4319 C0            1 RES     
    3311 C0        -106.7641   -44.7116   160.9179 C0            1 RES     
    3312 N3        -106.5421   -44.9480   159.5987 N3            1 RES     
    3313 S1        -105.7892   -46.4172   159.6184 S1            1 RES     
    3314 N3        -105.7044   -46.8005   161.2195 N3            1 RES     
    3315 C0        -106.3035   -45.7293   161.8040 C0            1 RES     
    3316 C0        -106.4690   -45.6017   163.1720 C0            1 RES     
    3317 H4        -107.9878   -42.6521   163.3212 H4            1 RES     
    3318 C5        -100.3219   -44.5519   162.7549 C5            1 RES     
    3319 C5        -101.5522   -44.6098   161.8496 C5            1 RES     
    3320 C5        -102.7582   -43.8438   162.4193 C5            1 RES     
    3321 C5        -102.5313   -42.3233   162.5061 C5            1 RES     
    3322 C5        -103.7835   -41.6121   163.0415 C5            1 RES     
    3323 C5        -103.6227   -40.0767   162.9929 C5            1 RES     
    3324 C5        -104.8642   -39.2737   163.4644 C5            1 RES     
    3325 C5        -106.1266   -39.7579   162.7489 C5            1 RES     
    3326 C5        -107.3706   -38.8344   162.7684 C5            1 RES     
    3327 C5        -108.1614   -38.6316   164.1182 C5            1 RES     
    3328 C5        -108.9198   -39.9605   164.3890 C5            1 RES     
    3329 C5        -109.8834   -40.2817   165.5376 C5            1 RES     
    3330 C5        -110.3549   -41.7469   165.2584 C5            1 RES     
    3331 C5        -111.3418   -42.3830   166.2357 C5            1 RES     
    3332 C5        -112.7391   -41.7813   166.1514 C5            1 RES     
    3333 C5        -107.2689   -37.6975   161.7412 C5            1 RES     
    3334 C0        -108.6031   -37.4969   160.9119 C0            1 RES     
    3335 C5        -108.6511   -36.0013   160.3755 C5            1 RES     
    3336 C5        -109.9169   -35.1384   160.7133 C5            1 RES     
    3337 C5        -111.0891   -35.2953   159.7020 C5            1 RES     
    3338 C5        -110.9069   -34.5456   158.3609 C5            1 RES     
    3339 C5        -111.9383   -34.9478   157.2885 C5            1 RES     
    3340 C5        -113.3776   -34.4768   157.5497 C5            1 RES     
    3341 C5        -113.5611   -32.9469   157.5669 C5            1 RES     
    3342 C5        -113.1422   -32.2739   156.2560 C5            1 RES     
    3343 C5        -109.5806   -33.6278   161.0219 C5            1 RES     
    3344 C5        -108.6050   -32.9052   160.0524 C5            1 RES     
    3345 C5        -108.4994   -31.3787   160.2681 C5            1 RES     
    3346 C5        -107.9632   -30.9466   161.6474 C5            1 RES     
    3347 C5        -107.8212   -29.4109   161.7866 C5            1 RES     
    3348 C5        -106.7348   -28.8047   160.8710 C5            1 RES     
    3349 C5        -106.5942   -27.2753   160.9934 C5            1 RES     
    3350 C5        -106.1224   -26.8044   162.3690 C5            1 RES     
    3351 H6         -99.9473   -43.5138   162.8592 H6            1 RES     
    3352 H6         -99.5090   -45.1657   162.3129 H6            1 RES     
    3353 H6        -100.5670   -44.9593   163.7588 H6            1 RES     
    3354 H6        -101.2936   -44.2189   160.8412 H6            1 RES     
    3355 H6        -101.8422   -45.6777   161.7397 H6            1 RES     
    3356 H6        -103.6203   -44.0289   161.7399 H6            1 RES     
    3357 H6        -103.0152   -44.2513   163.4208 H6            1 RES     
    3358 H6        -102.3037   -41.9478   161.4832 H6            1 RES     
    3359 H6        -101.6773   -42.0867   163.1732 H6            1 RES     
    3360 H6        -104.6300   -41.9131   162.3882 H6            1 RES     
    3361 H6        -103.9940   -41.9434   164.0808 H6            1 RES     
    3362 H6        -102.7433   -39.7644   163.5962 H6            1 RES     
    3363 H6        -103.4234   -39.7991   161.9334 H6            1 RES     
    3364 H6        -105.0142   -39.3653   164.5615 H6            1 RES     
    3365 H6        -104.6698   -38.2067   163.2218 H6            1 RES     
    3366 H6        -106.3863   -40.7543   163.1526 H6            1 RES     
    3367 H6        -105.8724   -39.9203   161.6766 H6            1 RES     
    3368 H6        -108.0500   -39.3938   162.2352 H6            1 RES     
    3369 H6        -107.4766   -38.3385   164.9415 H6            1 RES     
    3370 H6        -108.9305   -37.8382   163.9899 H6            1 RES     
    3371 H6        -109.5954   -40.0556   163.5182 H6            1 RES     
    3372 H6        -108.1449   -40.7447   164.4242 H6            1 RES     
    3373 H6        -110.7439   -39.5782   165.5278 H6            1 RES     
    3374 H6        -109.3626   -40.2245   166.5158 H6            1 RES     
    3375 H6        -110.8029   -41.8190   164.2390 H6            1 RES     
    3376 H6        -109.4530   -42.3976   165.2665 H6            1 RES     
    3377 H6        -110.9439   -42.3337   167.2695 H6            1 RES     
    3378 H6        -111.4371   -43.4564   165.9508 H6            1 RES     
    3379 H6        -113.1351   -41.8759   165.1158 H6            1 RES     
    3380 H6        -112.7290   -40.7152   166.4499 H6            1 RES     
    3381 H6        -113.4150   -42.3448   166.8298 H6            1 RES     
    3382 H6        -106.4924   -37.9007   160.9723 H6            1 RES     
    3383 H6        -106.9338   -36.8046   162.3118 H6            1 RES     
    3384 H6        -107.8657   -35.4744   160.9499 H6            1 RES     
    3385 H6        -108.2933   -35.8900   159.3327 H6            1 RES     
    3386 H6        -110.3064   -35.5344   161.6783 H6            1 RES     
    3387 H6        -111.2375   -36.3826   159.5349 H6            1 RES     
    3388 H6        -112.0199   -34.9054   160.1678 H6            1 RES     
    3389 H6        -110.9492   -33.4503   158.5131 H6            1 RES     
    3390 H6        -109.9031   -34.7684   157.9531 H6            1 RES     
    3391 H6        -111.6042   -34.5475   156.3098 H6            1 RES     
    3392 H6        -111.9507   -36.0521   157.1835 H6            1 RES     
    3393 H6        -113.7406   -34.9012   158.5092 H6            1 RES     
    3394 H6        -114.0177   -34.8889   156.7391 H6            1 RES     
    3395 H6        -112.9991   -32.4933   158.4091 H6            1 RES     
    3396 H6        -114.6399   -32.7386   157.7311 H6            1 RES     
    3397 H6        -113.6965   -32.7131   155.3991 H6            1 RES     
    3398 H6        -113.3675   -31.1885   156.3069 H6            1 RES     
    3399 H6        -112.0517   -32.3790   156.0804 H6            1 RES     
    3400 H6        -109.0934   -33.5853   162.0200 H6            1 RES     
    3401 H6        -110.5376   -33.0681   161.1049 H6            1 RES     
    3402 H6        -108.9143   -33.0248   159.0055 H6            1 RES     
    3403 H6        -107.5920   -33.3537   160.1341 H6            1 RES     
    3404 H6        -107.8145   -31.0059   159.4807 H6            1 RES     
    3405 H6        -109.4974   -30.9153   160.1038 H6            1 RES     
    3406 H6        -106.9763   -31.4202   161.8411 H6            1 RES     
    3407 H6        -108.6767   -31.2902   162.4237 H6            1 RES     
    3408 H6        -108.8008   -28.9254   161.5833 H6            1 RES     
    3409 H6        -107.5458   -29.2007   162.8433 H6            1 RES     
    3410 H6        -106.9911   -29.0074   159.8123 H6            1 RES     
    3411 H6        -105.7540   -29.2802   161.0907 H6            1 RES     
    3412 H6        -105.8392   -26.9414   160.2475 H6            1 RES     
    3413 H6        -107.5606   -26.7857   160.7455 H6            1 RES     
    3414 H6        -106.8654   -27.0491   163.1542 H6            1 RES     
    3415 H6        -105.9938   -25.7007   162.3537 H6            1 RES     
    3416 H6        -105.1457   -27.2686   162.6222 H6            1 RES     
    3417 C0        -105.6342   -48.2970   167.7634 C0            1 RES     
    3418 C0        -105.4018   -49.8314   167.4557 C0            1 RES     
    3419 C0        -105.1576   -50.0295   166.1386 C0            1 RES     
    3420 S1        -104.8597   -51.6297   165.7295 S1            1 RES     
    3421 C0        -105.0324   -52.1767   167.3289 C0            1 RES     
    3422 C0        -105.4056   -51.0844   168.1253 C0            1 RES     
    3423 C0        -105.3012   -48.8068   165.4398 C0            1 RES     
    3424 C0        -105.5842   -47.8528   166.2973 C0            1 RES     
    3425 C0        -105.9432   -46.6404   165.6165 C0            1 RES     
    3426 C0        -105.9122   -46.7989   164.2429 C0            1 RES     
    3427 S1        -105.3634   -48.4259   163.6984 S1            1 RES     
    3428 H2        -105.6197   -51.2210   169.1536 H2            1 RES     
    3429 H2        -106.3196   -45.7893   166.1004 H2            1 RES     
    3430 N3        -104.3074   -55.0400   169.7202 N3            1 RES     
    3431 C0        -104.6557   -53.8166   169.2316 C0            1 RES     
    3432 C0        -104.7360   -53.5632   167.8364 C0            1 RES     
    3433 C0        -104.4484   -54.6533   166.9870 C0            1 RES     
    3434 N3        -104.4794   -54.6046   165.6298 N3            1 RES     
    3435 S1        -104.0633   -56.1449   165.2052 S1            1 RES     
    3436 N3        -103.8269   -56.9063   166.6481 N3            1 RES     
    3437 C0        -104.0902   -55.9168   167.5422 C0            1 RES     
    3438 C0        -104.0207   -56.0909   168.9134 C0            1 RES     
    3439 H4        -104.8350   -53.0421   169.9483 H4            1 RES     
    3440 C5         -97.9219   -56.0652   167.5470 C5            1 RES     
    3441 C5         -99.2560   -55.6900   166.9021 C5            1 RES     
    3442 C5        -100.1728   -54.8822   167.8364 C5            1 RES     
    3443 C5         -99.6160   -53.4898   168.1857 C5            1 RES     
    3444 C5        -100.5941   -52.7182   169.0847 C5            1 RES     
    3445 C5        -100.1178   -51.2678   169.3198 C5            1 RES     
    3446 C5        -101.0755   -50.3952   170.1740 C5            1 RES     
    3447 C5        -102.5037   -50.4668   169.6308 C5            1 RES     
    3448 C5        -103.5048   -49.3712   170.0762 C5            1 RES     
    3449 C5        -104.0257   -49.3596   171.5651 C5            1 RES     
    3450 C5        -105.0021   -50.5609   171.7002 C5            1 RES     
    3451 C5        -105.8316   -50.9718   172.9225 C5            1 RES     
    3452 C5        -106.6413   -52.2229   172.4467 C5            1 RES     
    3453 C5        -107.5859   -52.8900   173.4449 C5            1 RES     
    3454 C5        -108.8191   -52.0505   173.7546 C5            1 RES     
    3455 C5        -103.3154   -48.0588   169.3019 C5            1 RES     
    3456 C0        -104.6834   -47.4365   168.8025 C0            1 RES     
    3457 C5        -104.4894   -45.8717   168.6012 C5            1 RES     
    3458 C5        -105.4774   -44.9058   169.3439 C5            1 RES     
    3459 C5        -106.7922   -44.6102   168.5661 C5            1 RES     
    3460 C5        -106.6541   -43.6072   167.3962 C5            1 RES     
    3461 C5        -107.8945   -43.5562   166.4826 C5            1 RES     
    3462 C5        -109.1452   -42.9161   167.1054 C5            1 RES     
    3463 C5        -108.9929   -41.4263   167.4686 C5            1 RES     
    3464 C5        -108.6381   -40.5452   166.2665 C5            1 RES     
    3465 C5        -104.7842   -43.5947   169.8832 C5            1 RES     
    3466 C5        -103.8309   -42.8447   168.9122 C5            1 RES     
    3467 C5        -103.3708   -41.4560   169.4098 C5            1 RES     
    3468 C5        -102.5570   -41.4647   170.7191 C5            1 RES     
    3469 C5        -102.0711   -40.0553   171.1381 C5            1 RES     
    3470 C5        -101.0277   -39.4488   170.1739 C5            1 RES     
    3471 C5        -100.5471   -38.0412   170.5757 C5            1 RES     
    3472 C5         -99.7876   -38.0007   171.9017 C5            1 RES     
    3473 H6         -97.3229   -55.1637   167.7865 H6            1 RES     
    3474 H6         -97.3333   -56.6890   166.8417 H6            1 RES     
    3475 H6         -98.0973   -56.6500   168.4750 H6            1 RES     
    3476 H6         -99.0717   -55.1222   165.9639 H6            1 RES     
    3477 H6         -99.7805   -56.6334   166.6349 H6            1 RES     
    3478 H6        -101.1452   -54.7467   167.3119 H6            1 RES     
    3479 H6        -100.3601   -55.4645   168.7644 H6            1 RES     
    3480 H6         -99.4670   -52.9279   167.2364 H6            1 RES     
    3481 H6         -98.6422   -53.5718   168.7104 H6            1 RES     
    3482 H6        -101.5724   -52.7024   168.5587 H6            1 RES     
    3483 H6        -100.7146   -53.2448   170.0555 H6            1 RES     
    3484 H6         -99.1129   -51.2668   169.7938 H6            1 RES     
    3485 H6        -100.0226   -50.7858   168.3207 H6            1 RES     
    3486 H6        -101.0779   -50.7171   171.2375 H6            1 RES     
    3487 H6        -100.6956   -49.3521   170.1210 H6            1 RES     
    3488 H6        -102.9079   -51.4692   169.8654 H6            1 RES     
    3489 H6        -102.4514   -50.4118   168.5195 H6            1 RES     
    3490 H6        -104.3592   -49.6600   169.5808 H6            1 RES     
    3491 H6        -103.1802   -49.3950   172.2839 H6            1 RES     
    3492 H6        -104.6179   -48.4364   171.7510 H6            1 RES     
    3493 H6        -105.8035   -50.3266   170.9744 H6            1 RES     
    3494 H6        -104.4161   -51.4542   171.4257 H6            1 RES     
    3495 H6        -106.5137   -50.1467   173.2213 H6            1 RES     
    3496 H6        -105.1720   -51.2408   173.7733 H6            1 RES     
    3497 H6        -107.2399   -51.9713   171.5393 H6            1 RES     
    3498 H6        -105.9082   -53.0045   172.1489 H6            1 RES     
    3499 H6        -107.0384   -53.1582   174.3711 H6            1 RES     
    3500 H6        -107.9493   -53.8313   172.9711 H6            1 RES     
    3501 H6        -109.3746   -51.8255   172.8170 H6            1 RES     
    3502 H6        -108.5374   -51.1045   174.2561 H6            1 RES     
    3503 H6        -109.4920   -52.6317   174.4208 H6            1 RES     
    3504 H6        -102.7225   -48.2062   168.3733 H6            1 RES     
    3505 H6        -102.7166   -47.3999   169.9671 H6            1 RES     
    3506 H6        -103.5335   -45.6422   169.1092 H6            1 RES     
    3507 H6        -104.2741   -45.5802   167.5541 H6            1 RES     
    3508 H6        -105.7956   -45.4452   170.2647 H6            1 RES     
    3509 H6        -107.1926   -45.5834   168.2129 H6            1 RES     
    3510 H6        -107.5390   -44.1853   169.2712 H6            1 RES     
    3511 H6        -106.4385   -42.5894   167.7733 H6            1 RES     
    3512 H6        -105.7927   -43.8990   166.7667 H6            1 RES     
    3513 H6        -107.6308   -42.9997   165.5604 H6            1 RES     
    3514 H6        -108.1580   -44.5841   166.1594 H6            1 RES     
    3515 H6        -109.4446   -43.4860   168.0099 H6            1 RES     
    3516 H6        -109.9711   -43.0052   166.3661 H6            1 RES     
    3517 H6        -108.2288   -41.2914   168.2615 H6            1 RES     
    3518 H6        -109.9659   -41.0774   167.8756 H6            1 RES     
    3519 H6        -109.3939   -40.6642   165.4608 H6            1 RES     
    3520 H6        -108.6162   -39.4808   166.5795 H6            1 RES     
    3521 H6        -107.6335   -40.7950   165.8673 H6            1 RES     
    3522 H6        -104.1573   -43.8764   170.7566 H6            1 RES     
    3523 H6        -105.5765   -42.9120   170.2604 H6            1 RES     
    3524 H6        -104.3098   -42.6562   167.9422 H6            1 RES     
    3525 H6        -102.9365   -43.4701   168.7051 H6            1 RES     
    3526 H6        -102.7461   -41.0327   168.5983 H6            1 RES     
    3527 H6        -104.2598   -40.7995   169.5379 H6            1 RES     
    3528 H6        -101.6765   -42.1360   170.6193 H6            1 RES     
    3529 H6        -103.2047   -41.8524   171.5314 H6            1 RES     
    3530 H6        -102.9434   -39.3716   171.2297 H6            1 RES     
    3531 H6        -101.6042   -40.1537   172.1425 H6            1 RES     
    3532 H6        -101.4749   -39.3461   169.1654 H6            1 RES     
    3533 H6        -100.1498   -40.1271   170.0999 H6            1 RES     
    3534 H6         -99.8568   -37.6772   169.7827 H6            1 RES     
    3535 H6        -101.4122   -37.3454   170.6228 H6            1 RES     
    3536 H6        -100.4414   -38.2909   172.7484 H6            1 RES     
    3537 H6         -99.4298   -36.9651   172.0870 H6            1 RES     
    3538 H6         -98.9062   -38.6754   171.8630 H6            1 RES     
    3539 C0        -103.1124   -59.9030   172.6127 C0            1 RES     
    3540 C0        -103.2613   -61.3366   171.9603 C0            1 RES     
    3541 C0        -103.2623   -61.2558   170.6086 C0            1 RES     
    3542 S1        -103.3771   -62.7398   169.8330 S1            1 RES     
    3543 C0        -103.4245   -63.6120   171.2904 C0            1 RES     
    3544 C0        -103.4339   -62.6923   172.3489 C0            1 RES     
    3545 C0        -103.2429   -59.8964   170.2141 C0            1 RES     
    3546 C0        -103.1858   -59.1390   171.2860 C0            1 RES     
    3547 C0        -103.3739   -57.7561   170.9479 C0            1 RES     
    3548 C0        -103.5807   -57.5866   169.5909 C0            1 RES     
    3549 S1        -103.4788   -59.1080   168.6318 S1            1 RES     
    3550 H2        -103.5180   -63.0296   173.3495 H2            1 RES     
    3551 H2        -103.4840   -56.9919   171.6580 H2            1 RES     
    3552 N3        -102.9831   -67.0428   172.8643 N3            1 RES     
    3553 C0        -103.1302   -65.6968   172.7111 C0            1 RES     
    3554 C0        -103.3597   -65.1092   171.4386 C0            1 RES     
    3555 C0        -103.4403   -65.9994   170.3460 C0            1 RES     
    3556 N3        -103.6603   -65.6251   169.0589 N3            1 RES     
    3557 S1        -103.6504   -67.0688   168.2578 S1            1 RES     
    3558 N3        -103.3717   -68.1804   169.4428 N3            1 RES     
    3559 C0        -103.2824   -67.4012   170.5531 C0            1 RES     
    3560 C0        -103.0500   -67.9055   171.8208 C0            1 RES     
    3561 H4        -103.0320   -65.0958   173.5912 H4            1 RES     
    3562 C5         -97.3569   -68.6243   169.3440 C5            1 RES     
    3563 C5         -98.6603   -67.8790   169.0572 C5            1 RES     
    3564 C5         -99.2350   -67.1686   170.2945 C5            1 RES     
    3565 C5         -98.3481   -66.0187   170.8064 C5            1 RES     
    3566 C5         -98.9950   -65.3237   172.0142 C5            1 RES     
    3567 C5         -98.1904   -64.0772   172.4437 C5            1 RES     
    3568 C5         -98.8026   -63.2786   173.6253 C5            1 RES     
    3569 C5        -100.2772   -62.9680   173.3632 C5            1 RES     
    3570 C5        -100.9440   -61.8517   174.2059 C5            1 RES     
    3571 C5        -101.2247   -62.1030   175.7377 C5            1 RES     
    3572 C5        -102.4043   -63.1119   175.8102 C5            1 RES     
    3573 C5        -103.1126   -63.6497   177.0593 C5            1 RES     
    3574 C5        -104.2321   -64.5902   176.5032 C5            1 RES     
    3575 C5        -105.1395   -65.2994   177.5070 C5            1 RES     
    3576 C5        -106.1052   -64.3548   178.2119 C5            1 RES     
    3577 C5        -100.5951   -60.4469   173.6933 C5            1 RES     
    3578 C0        -101.8569   -59.4941   173.6030 C0            1 RES     
    3579 C5        -101.3648   -57.9852   173.6910 C5            1 RES     
    3580 C5        -102.0028   -57.0658   174.7902 C5            1 RES     
    3581 C5        -103.3243   -56.3683   174.3559 C5            1 RES     
    3582 C5        -103.1493   -55.1562   173.4103 C5            1 RES     
    3583 C5        -104.4712   -54.6733   172.7817 C5            1 RES     
    3584 C5        -105.4502   -53.9907   173.7498 C5            1 RES     
    3585 C5        -104.9310   -52.6802   174.3725 C5            1 RES     
    3586 C5        -104.5778   -51.6149   173.3297 C5            1 RES     
    3587 C5        -100.9736   -56.0625   175.4419 C5            1 RES     
    3588 C5        -100.0362   -55.2822   174.4793 C5            1 RES     
    3589 C5         -99.2216   -54.1541   175.1514 C5            1 RES     
    3590 C5         -98.2442   -54.6160   176.2505 C5            1 RES     
    3591 C5         -97.4119   -53.4540   176.8464 C5            1 RES     
    3592 C5         -96.4172   -52.8282   175.8439 C5            1 RES     
    3593 C5         -95.5929   -51.6629   176.4239 C5            1 RES     
    3594 C5         -94.6550   -52.0722   177.5596 C5            1 RES     
    3595 H6         -96.5504   -67.9247   169.6424 H6            1 RES     
    3596 H6         -97.0260   -69.1558   168.4269 H6            1 RES     
    3597 H6         -97.5142   -69.3728   170.1495 H6            1 RES     
    3598 H6         -98.4996   -67.1459   168.2366 H6            1 RES     
    3599 H6         -99.4079   -68.6251   168.7092 H6            1 RES     
    3600 H6        -100.2225   -66.7443   170.0051 H6            1 RES     
    3601 H6         -99.4033   -67.9126   171.1028 H6            1 RES     
    3602 H6         -98.2244   -65.2824   169.9807 H6            1 RES     
    3603 H6         -97.3478   -66.3922   171.1066 H6            1 RES     
    3604 H6        -100.0140   -65.0124   171.7002 H6            1 RES     
    3605 H6         -99.0805   -66.0364   172.8622 H6            1 RES     
    3606 H6         -97.1497   -64.3648   172.7062 H6            1 RES     
    3607 H6         -98.1430   -63.3959   171.5644 H6            1 RES     
    3608 H6         -98.7166   -63.8384   174.5812 H6            1 RES     
    3609 H6         -98.2206   -62.3359   173.7138 H6            1 RES     
    3610 H6        -100.8471   -63.9107   173.4620 H6            1 RES     
    3611 H6        -100.3791   -62.6605   172.2974 H6            1 RES     
    3612 H6        -101.9040   -61.8603   173.8354 H6            1 RES     
    3613 H6        -100.3096   -62.4557   176.2583 H6            1 RES     
    3614 H6        -101.5718   -61.1614   176.2177 H6            1 RES     
    3615 H6        -103.2353   -62.5753   175.3149 H6            1 RES     
    3616 H6        -102.0699   -64.0028   175.2525 H6            1 RES     
    3617 H6        -103.5508   -62.8129   177.6450 H6            1 RES     
    3618 H6        -102.4074   -64.2243   177.6948 H6            1 RES     
    3619 H6        -104.8904   -64.0294   175.7981 H6            1 RES     
    3620 H6        -103.7352   -65.3947   175.9175 H6            1 RES     
    3621 H6        -104.5313   -65.8715   178.2367 H6            1 RES     
    3622 H6        -105.7615   -66.0225   176.9303 H6            1 RES     
    3623 H6        -106.7320   -63.8198   177.4641 H6            1 RES     
    3624 H6        -105.5569   -63.6195   178.8319 H6            1 RES     
    3625 H6        -106.7807   -64.9506   178.8623 H6            1 RES     
    3626 H6        -100.1912   -60.4710   172.6580 H6            1 RES     
    3627 H6         -99.7778   -60.0802   174.3512 H6            1 RES     
    3628 H6        -100.3177   -58.0539   174.0419 H6            1 RES     
    3629 H6        -101.2493   -57.4957   172.7036 H6            1 RES     
    3630 H6        -102.2894   -57.7441   175.6255 H6            1 RES     
    3631 H6        -103.9710   -57.1442   173.8955 H6            1 RES     
    3632 H6        -103.8504   -55.9991   175.2627 H6            1 RES     
    3633 H6        -102.6679   -54.3112   173.9382 H6            1 RES     
    3634 H6        -102.4728   -55.4364   172.5813 H6            1 RES     
    3635 H6        -104.2338   -53.9687   171.9589 H6            1 RES     
    3636 H6        -104.9930   -55.5325   172.3127 H6            1 RES     
    3637 H6        -105.7275   -54.6976   174.5597 H6            1 RES     
    3638 H6        -106.3759   -53.7556   173.1804 H6            1 RES     
    3639 H6        -104.0473   -52.8734   175.0147 H6            1 RES     
    3640 H6        -105.7360   -52.2731   175.0210 H6            1 RES     
    3641 H6        -105.4519   -51.4048   172.6770 H6            1 RES     
    3642 H6        -104.2829   -50.6761   173.8426 H6            1 RES     
    3643 H6        -103.7199   -51.9346   172.7028 H6            1 RES     
    3644 H6        -100.2994   -56.6490   176.1027 H6            1 RES     
    3645 H6        -101.5371   -55.3611   176.0950 H6            1 RES     
    3646 H6        -100.6016   -54.7878   173.6783 H6            1 RES     
    3647 H6         -99.3367   -55.9871   173.9815 H6            1 RES     
    3648 H6         -98.6477   -53.6663   174.3386 H6            1 RES     
    3649 H6         -99.9209   -53.4016   175.5786 H6            1 RES     
    3650 H6         -97.5522   -55.3878   175.8491 H6            1 RES     
    3651 H6         -98.8326   -55.0659   177.0757 H6            1 RES     
    3652 H6         -98.0947   -52.6697   177.2409 H6            1 RES     
    3653 H6         -96.8337   -53.8683   177.7011 H6            1 RES     
    3654 H6         -96.9760   -52.4122   174.9824 H6            1 RES     
    3655 H6         -95.7252   -53.6123   175.4663 H6            1 RES     
    3656 H6         -94.9656   -51.2476   175.6042 H6            1 RES     
    3657 H6         -96.2727   -50.8577   176.7768 H6            1 RES     
    3658 H6         -95.2233   -52.4360   178.4388 H6            1 RES     
    3659 H6         -94.0608   -51.1893   177.8796 H6            1 RES     
    3660 H6         -93.9537   -52.8619   177.2159 H6            1 RES     
    3661 C0        -102.4412   -72.5856   174.4223 C0            1 RES     
    3662 C0        -102.9876   -73.7744   173.5328 C0            1 RES     
    3663 C0        -103.1710   -73.3759   172.2517 C0            1 RES     
    3664 S1        -103.7135   -74.5894   171.2270 S1            1 RES     
    3665 C0        -103.7305   -75.7607   172.4578 C0            1 RES     
    3666 C0        -103.3866   -75.1317   173.6630 C0            1 RES     
    3667 C0        -102.9200   -71.9867   172.1459 C0            1 RES     
    3668 C0        -102.5447   -71.5277   173.3181 C0            1 RES     
    3669 C0        -102.4808   -70.0931   173.3111 C0            1 RES     
    3670 C0        -102.8446   -69.5726   172.0825 C0            1 RES     
    3671 S1        -103.2131   -70.8162   170.8324 S1            1 RES     
    3672 H2        -103.3921   -75.6769   174.5711 H2            1 RES     
    3673 H2        -102.3189   -69.5124   174.1695 H2            1 RES     
    3674 N3        -103.8049   -79.4899   173.1859 N3            1 RES     
    3675 C0        -103.6819   -78.1417   173.3410 C0            1 RES     
    3676 C0        -103.9659   -77.2378   172.2829 C0            1 RES     
    3677 C0        -104.3954   -77.8146   171.0682 C0            1 RES     
    3678 N3        -104.7179   -77.1127   169.9508 N3            1 RES     
    3679 S1        -105.1352   -78.3035   168.8861 S1            1 RES     
    3680 N3        -104.9286   -79.6960   169.7440 N3            1 RES     
    3681 C0        -104.5119   -79.2309   170.9514 C0            1 RES     
    3682 C0        -104.2080   -80.0545   172.0213 C0            1 RES     
    3683 H4        -103.3286   -77.7937   174.2894 H4            1 RES     
    3684 C5         -99.2297   -81.1498   168.4046 C5            1 RES     
    3685 C5        -100.3715   -80.1414   168.5310 C5            1 RES     
    3686 C5        -100.5919   -79.6559   169.9738 C5            1 RES     
    3687 C5         -99.4141   -78.8341   170.5291 C5            1 RES     
    3688 C5         -99.7118   -78.3438   171.9544 C5            1 RES     
    3689 C5         -98.6051   -77.3956   172.4660 C5            1 RES     
    3690 C5         -98.8510   -76.8061   173.8804 C5            1 RES     
    3691 C5        -100.2474   -76.1888   173.9750 C5            1 RES     
    3692 C5        -100.5283   -75.2057   175.1392 C5            1 RES     
    3693 C5        -100.6268   -75.7606   176.6126 C5            1 RES     
    3694 C5        -101.9708   -76.5352   176.7032 C5            1 RES     
    3695 C5        -102.5853   -77.2217   177.9288 C5            1 RES     
    3696 C5        -103.9495   -77.7922   177.4183 C5            1 RES     
    3697 C5        -104.8289   -78.5493   178.4119 C5            1 RES     
    3698 C5        -105.4555   -77.6452   179.4661 C5            1 RES     
    3699 C5         -99.9668   -73.8028   174.8660 C5            1 RES     
    3700 C0        -100.9951   -72.6501   175.2154 C0            1 RES     
    3701 C5        -100.1845   -71.3154   175.5125 C5            1 RES     
    3702 C5        -100.4417   -70.5863   176.8775 C5            1 RES     
    3703 C5        -101.6329   -69.5854   176.8560 C5            1 RES     
    3704 C5        -101.3446   -68.2333   176.1613 C5            1 RES     
    3705 C5        -102.6107   -67.3910   175.9097 C5            1 RES     
    3706 C5        -103.2672   -66.7974   177.1659 C5            1 RES     
    3707 C5        -102.3939   -65.7841   177.9309 C5            1 RES     
    3708 C5        -101.9791   -64.5804   177.0788 C5            1 RES     
    3709 C5         -99.1372   -69.9628   177.5098 C5            1 RES     
    3710 C5         -98.2074   -69.1528   176.5646 C5            1 RES     
    3711 C5         -97.0804   -68.3771   177.2831 C5            1 RES     
    3712 C5         -96.0729   -69.2507   178.0568 C5            1 RES     
    3713 C5         -94.9329   -68.4277   178.7057 C5            1 RES     
    3714 C5         -93.9866   -67.7659   177.6798 C5            1 RES     
    3715 C5         -92.8559   -66.9346   178.3156 C5            1 RES     
    3716 C5         -91.8699   -67.7596   179.1426 C5            1 RES     
    3717 H6         -98.2574   -80.6935   168.6788 H6            1 RES     
    3718 H6         -99.1593   -81.4978   167.3524 H6            1 RES     
    3719 H6         -99.4227   -82.0288   169.0558 H6            1 RES     
    3720 H6        -100.1808   -79.2742   167.8616 H6            1 RES     
    3721 H6        -101.3042   -80.6406   168.1886 H6            1 RES     
    3722 H6        -101.4976   -79.0088   169.9718 H6            1 RES     
    3723 H6        -100.7940   -80.5293   170.6307 H6            1 RES     
    3724 H6         -99.2592   -77.9561   169.8626 H6            1 RES     
    3725 H6         -98.4836   -79.4374   170.5494 H6            1 RES     
    3726 H6        -100.6757   -77.7932   171.9117 H6            1 RES     
    3727 H6         -99.8215   -79.2111   172.6399 H6            1 RES     
    3728 H6         -97.6228   -77.9150   172.4598 H6            1 RES     
    3729 H6         -98.5436   -76.5442   171.7514 H6            1 RES     
    3730 H6         -98.7464   -77.5831   174.6678 H6            1 RES     
    3731 H6         -98.0745   -76.0284   174.0456 H6            1 RES     
    3732 H6        -100.9846   -77.0132   173.9873 H6            1 RES     
    3733 H6        -100.4375   -75.6241   173.0339 H6            1 RES     
    3734 H6        -101.5119   -74.9578   174.9660 H6            1 RES     
    3735 H6         -99.7416   -76.3814   176.8650 H6            1 RES     
    3736 H6        -100.6898   -74.9142   177.3317 H6            1 RES     
    3737 H6        -102.7317   -75.7593   176.4963 H6            1 RES     
    3738 H6        -101.9206   -77.3125   175.9222 H6            1 RES     
    3739 H6        -102.7431   -76.4845   178.7456 H6            1 RES     
    3740 H6        -101.9332   -78.0452   178.2867 H6            1 RES     
    3741 H6        -104.5694   -76.9736   176.9818 H6            1 RES     
    3742 H6        -103.7280   -78.5087   176.5970 H6            1 RES     
    3743 H6        -104.2561   -79.3758   178.8792 H6            1 RES     
    3744 H6        -105.6693   -78.9943   177.8304 H6            1 RES     
    3745 H6        -106.0570   -76.8467   178.9774 H6            1 RES     
    3746 H6        -104.6774   -77.1859   180.1059 H6            1 RES     
    3747 H6        -106.1391   -78.2506   180.0990 H6            1 RES     
    3748 H6         -99.7349   -73.6506   173.7896 H6            1 RES     
    3749 H6         -99.0021   -73.7519   175.4154 H6            1 RES     
    3750 H6         -99.1361   -71.6478   175.6346 H6            1 RES     
    3751 H6        -100.1141   -70.6334   174.6421 H6            1 RES     
    3752 H6        -100.7400   -71.3827   177.5963 H6            1 RES     
    3753 H6        -102.4912   -70.1041   176.3802 H6            1 RES     
    3754 H6        -101.9282   -69.3559   177.9026 H6            1 RES     
    3755 H6        -100.6211   -67.6355   176.7477 H6            1 RES     
    3756 H6        -100.8736   -68.4225   175.1785 H6            1 RES     
    3757 H6        -102.3525   -66.5639   175.2176 H6            1 RES     
    3758 H6        -103.3675   -68.0092   175.3846 H6            1 RES     
    3759 H6        -103.5665   -67.6166   177.8528 H6            1 RES     
    3760 H6        -104.1951   -66.2754   176.8447 H6            1 RES     
    3761 H6        -101.4869   -66.2760   178.3385 H6            1 RES     
    3762 H6        -102.9884   -65.4082   178.7908 H6            1 RES     
    3763 H6        -102.8748   -64.0715   176.6626 H6            1 RES     
    3764 H6        -101.4180   -63.8569   177.7057 H6            1 RES     
    3765 H6        -101.3116   -64.8872   176.2472 H6            1 RES     
    3766 H6         -98.5138   -70.7981   177.8955 H6            1 RES     
    3767 H6         -99.4350   -69.3491   178.3877 H6            1 RES     
    3768 H6         -98.7661   -68.3911   176.0047 H6            1 RES     
    3769 H6         -97.7560   -69.8305   175.8090 H6            1 RES     
    3770 H6         -96.5420   -67.8185   176.4920 H6            1 RES     
    3771 H6         -97.5318   -67.6372   177.9806 H6            1 RES     
    3772 H6         -95.6289   -70.0140   177.3816 H6            1 RES     
    3773 H6         -96.6154   -69.7736   178.8704 H6            1 RES     
    3774 H6         -95.3663   -67.6526   179.3751 H6            1 RES     
    3775 H6         -94.3368   -69.1279   179.3310 H6            1 RES     
    3776 H6         -94.5646   -67.0659   177.0445 H6            1 RES     
    3777 H6         -93.5418   -68.5466   177.0248 H6            1 RES     
    3778 H6         -92.2825   -66.4529   177.4928 H6            1 RES     
    3779 H6         -93.2882   -66.1300   178.9487 H6            1 RES     
    3780 H6         -92.3667   -68.2167   180.0218 H6            1 RES     
    3781 H6         -91.0602   -67.0961   179.5155 H6            1 RES     
    3782 H6         -91.4123   -68.5554   178.5174 H6            1 RES     
    3783 C0        -104.2360   -85.2508   173.4495 C0            1 RES     
    3784 C0        -105.1491   -86.0796   172.4584 C0            1 RES     
    3785 C0        -105.4302   -85.3624   171.3448 C0            1 RES     
    3786 S1        -106.3648   -86.1835   170.2181 S1            1 RES     
    3787 C0        -106.4496   -87.5920   171.1646 C0            1 RES     
    3788 C0        -105.8051   -87.3376   172.3838 C0            1 RES     
    3789 C0        -104.9066   -84.0539   171.4778 C0            1 RES     
    3790 C0        -104.2729   -83.9595   172.6246 C0            1 RES     
    3791 C0        -103.9056   -82.5984   172.8976 C0            1 RES     
    3792 C0        -104.3273   -81.7455   171.8938 C0            1 RES     
    3793 S1        -105.1334   -82.5722   170.5112 S1            1 RES     
    3794 H2        -105.7928   -88.0733   173.1457 H2            1 RES     
    3795 H2        -103.4984   -82.2758   173.8089 H2            1 RES     
    3796 N3        -107.2109   -91.3150   171.1189 N3            1 RES     
    3797 C0        -106.7811   -90.0853   171.5186 C0            1 RES     
    3798 C0        -107.0185   -88.9205   170.7412 C0            1 RES     
    3799 C0        -107.7359   -89.1080   169.5400 C0            1 RES     
    3800 N3        -108.0624   -88.1153   168.6721 N3            1 RES     
    3801 S1        -108.8771   -88.9272   167.4875 S1            1 RES     
    3802 N3        -108.8484   -90.4976   167.9881 N3            1 RES     
    3803 C0        -108.1683   -90.4130   169.1620 C0            1 RES     
    3804 C0        -107.8928   -91.5073   169.9632 C0            1 RES     
    3805 H4        -106.2255   -90.0399   172.4322 H4            1 RES     
    3806 C5        -103.8537   -92.5664   165.3127 C5            1 RES     
    3807 C5        -104.7221   -91.4330   165.8585 C5            1 RES     
    3808 C5        -104.6181   -91.2733   167.3848 C5            1 RES     
    3809 C5        -103.2231   -90.8262   167.8592 C5            1 RES     
    3810 C5        -103.1953   -90.6442   169.3844 C5            1 RES     
    3811 C5        -101.8484   -90.0536   169.8563 C5            1 RES     
    3812 C5        -101.7510   -89.7833   171.3814 C5            1 RES     
    3813 C5        -102.9536   -88.9714   171.8658 C5            1 RES     
    3814 C5        -102.8427   -88.2594   173.2375 C5            1 RES     
    3815 C5        -102.8388   -89.1223   174.5580 C5            1 RES     
    3816 C5        -104.2889   -89.6487   174.7453 C5            1 RES     
    3817 C5        -104.8479   -90.4881   175.9001 C5            1 RES     
    3818 C5        -106.3626   -90.6731   175.5557 C5            1 RES     
    3819 C5        -107.2269   -91.4785   176.5242 C5            1 RES     
    3820 C5        -107.4830   -90.7554   177.8406 C5            1 RES     
    3821 C5        -102.0411   -86.9524   173.1530 C5            1 RES     
    3822 C0        -102.7361   -85.7540   173.9203 C0            1 RES     
    3823 C5        -101.6242   -84.6913   174.3217 C5            1 RES     
    3824 C5        -101.5152   -84.2739   175.8299 C5            1 RES     
    3825 C5        -102.4548   -83.1038   176.2416 C5            1 RES     
    3826 C5        -101.9901   -81.6974   175.7945 C5            1 RES     
    3827 C5        -103.0699   -80.6112   175.9673 C5            1 RES     
    3828 C5        -103.3914   -80.2275   177.4203 C5            1 RES     
    3829 C5        -102.2186   -79.5939   178.1933 C5            1 RES     
    3830 C5        -101.6867   -78.3141   177.5406 C5            1 RES     
    3831 C5        -100.0289   -84.0568   176.3136 C5            1 RES     
    3832 C5         -99.0975   -83.2211   175.3926 C5            1 RES     
    3833 C5         -97.7373   -82.8481   176.0241 C5            1 RES     
    3834 C5         -96.8368   -84.0429   176.3957 C5            1 RES     
    3835 C5         -95.4642   -83.6104   176.9674 C5            1 RES     
    3836 C5         -94.5605   -82.9000   175.9356 C5            1 RES     
    3837 C5         -93.1971   -82.4548   176.4983 C5            1 RES     
    3838 C5         -92.2991   -83.6122   176.9352 C5            1 RES     
    3839 H6        -102.7768   -92.3658   165.4823 H6            1 RES     
    3840 H6        -104.0154   -92.6613   164.2182 H6            1 RES     
    3841 H6        -104.1317   -93.5271   165.7961 H6            1 RES     
    3842 H6        -104.4515   -90.4788   165.3557 H6            1 RES     
    3843 H6        -105.7801   -91.6653   165.6070 H6            1 RES     
    3844 H6        -105.3547   -90.4959   167.6883 H6            1 RES     
    3845 H6        -104.9029   -92.2284   167.8765 H6            1 RES     
    3846 H6        -102.9844   -89.8561   167.3682 H6            1 RES     
    3847 H6        -102.4505   -91.5704   167.5773 H6            1 RES     
    3848 H6        -104.0148   -89.9392   169.6405 H6            1 RES     
    3849 H6        -103.3853   -91.6165   169.8871 H6            1 RES     
    3850 H6        -101.0117   -90.7203   169.5561 H6            1 RES     
    3851 H6        -101.7126   -89.0811   169.3316 H6            1 RES     
    3852 H6        -101.6998   -90.7310   171.9591 H6            1 RES     
    3853 H6        -100.8106   -89.2154   171.5492 H6            1 RES     
    3854 H6        -103.8398   -89.6329   171.8512 H6            1 RES     
    3855 H6        -103.1554   -88.1750   171.1136 H6            1 RES     
    3856 H6        -103.7652   -87.8092   173.3104 H6            1 RES     
    3857 H6        -102.0795   -89.9305   174.5042 H6            1 RES     
    3858 H6        -102.6126   -88.4734   175.4328 H6            1 RES     
    3859 H6        -104.8884   -88.7249   174.8506 H6            1 RES     
    3860 H6        -104.5219   -90.2146   173.8276 H6            1 RES     
    3861 H6        -104.7221   -89.9502   176.8646 H6            1 RES     
    3862 H6        -104.3413   -91.4741   175.9510 H6            1 RES     
    3863 H6        -106.8508   -89.6787   175.4222 H6            1 RES     
    3864 H6        -106.4232   -91.2014   174.5788 H6            1 RES     
    3865 H6        -106.7813   -92.4795   176.6948 H6            1 RES     
    3866 H6        -108.2194   -91.6184   176.0367 H6            1 RES     
    3867 H6        -107.9654   -89.7710   177.6494 H6            1 RES     
    3868 H6        -106.5390   -90.6047   178.3990 H6            1 RES     
    3869 H6        -108.1791   -91.3645   178.4562 H6            1 RES     
    3870 H6        -101.9436   -86.5919   172.1061 H6            1 RES     
    3871 H6        -101.0175   -87.2032   173.5057 H6            1 RES     
    3872 H6        -100.6649   -85.2215   174.1701 H6            1 RES     
    3873 H6        -101.5391   -83.8452   173.6113 H6            1 RES     
    3874 H6        -101.8673   -85.1533   176.4152 H6            1 RES     
    3875 H6        -103.4648   -83.3361   175.8439 H6            1 RES     
    3876 H6        -102.5363   -83.0815   177.3499 H6            1 RES     
    3877 H6        -101.0771   -81.3923   176.3403 H6            1 RES     
    3878 H6        -101.7208   -81.7272   174.7221 H6            1 RES     
    3879 H6        -102.7460   -79.7017   175.4217 H6            1 RES     
    3880 H6        -104.0103   -80.9446   175.4827 H6            1 RES     
    3881 H6        -103.7541   -81.1210   177.9704 H6            1 RES     
    3882 H6        -104.2233   -79.4899   177.3962 H6            1 RES     
    3883 H6        -101.3877   -80.3196   178.3105 H6            1 RES     
    3884 H6        -102.5854   -79.3350   179.2095 H6            1 RES     
    3885 H6        -102.5043   -77.5722   177.4165 H6            1 RES     
    3886 H6        -100.8976   -77.8700   178.1821 H6            1 RES     
    3887 H6        -101.2304   -78.5265   176.5518 H6            1 RES     
    3888 H6         -99.5484   -85.0557   176.3943 H6            1 RES     
    3889 H6        -100.0556   -83.6268   177.3385 H6            1 RES     
    3890 H6         -99.5569   -82.2625   175.1172 H6            1 RES     
    3891 H6         -98.9181   -83.7682   174.4426 H6            1 RES     
    3892 H6         -97.2149   -82.2206   175.2749 H6            1 RES     
    3893 H6         -97.9120   -82.2277   176.9309 H6            1 RES     
    3894 H6         -96.6709   -84.6895   175.5069 H6            1 RES     
    3895 H6         -97.3522   -84.6409   177.1745 H6            1 RES     
    3896 H6         -95.6183   -82.9529   177.8510 H6            1 RES     
    3897 H6         -94.9459   -84.5323   177.3109 H6            1 RES     
    3898 H6         -95.0629   -81.9790   175.5791 H6            1 RES     
    3899 H6         -94.3945   -83.5682   175.0626 H6            1 RES     
    3900 H6         -92.6620   -81.8995   175.6963 H6            1 RES     
    3901 H6         -93.3491   -81.7607   177.3528 H6            1 RES     
    3902 H6         -92.7466   -84.1707   177.7815 H6            1 RES     
    3903 H6         -91.3203   -83.2086   177.2729 H6            1 RES     
    3904 H6         -92.1196   -84.3041   176.0851 H6            1 RES     
    3905 C0        -108.8193   -96.8065   170.2822 C0            1 RES     
    3906 C0        -110.0246   -97.2031   169.3372 C0            1 RES     
    3907 C0        -110.3073   -96.2041   168.4679 C0            1 RES     
    3908 S1        -111.5516   -96.5572   167.3984 S1            1 RES     
    3909 C0        -111.7948   -98.1131   168.0368 C0            1 RES     
    3910 C0        -110.9380   -98.2724   169.1354 C0            1 RES     
    3911 C0        -109.5024   -95.0771   168.7615 C0            1 RES     
    3912 C0        -108.7009   -95.3704   169.7601 C0            1 RES     
    3913 C0        -108.0150   -94.1990   170.2288 C0            1 RES     
    3914 C0        -108.3882   -93.0718   169.5195 C0            1 RES     
    3915 S1        -109.5476   -93.3921   168.1786 S1            1 RES     
    3916 H2        -110.9708   -99.1585   169.7148 H2            1 RES     
    3917 H2        -107.4183   -94.1785   171.0912 H2            1 RES     
    3918 N3        -113.3323  -101.5261   167.3812 N3            1 RES     
    3919 C0        -112.5954  -100.5213   167.9328 C0            1 RES     
    3920 C0        -112.6906   -99.1822   167.4691 C0            1 RES     
    3921 C0        -113.6008   -98.9503   166.4153 C0            1 RES     
    3922 N3        -113.8322   -97.7386   165.8467 N3            1 RES     
    3923 S1        -114.9674   -98.0902   164.7005 S1            1 RES     
    3924 N3        -115.2013   -99.7146   164.8560 N3            1 RES     
    3925 C0        -114.3531  -100.0317   165.8698 C0            1 RES     
    3926 C0        -114.2026  -101.3159   166.3634 C0            1 RES     
    3927 H4        -111.9143  -100.7923   168.7126 H4            1 RES     
    3928 C5        -111.2154  -101.9303   160.9079 C5            1 RES     
    3929 C5        -111.7311  -100.8250   161.8292 C5            1 RES     
    3930 C5        -111.3711  -101.0532   163.3071 C5            1 RES     
    3931 C5        -109.8584  -100.9829   163.5859 C5            1 RES     
    3932 C5        -109.5674  -101.1762   165.0820 C5            1 RES     
    3933 C5        -108.0708  -100.9599   165.3967 C5            1 RES     
    3934 C5        -107.6938  -101.0810   166.8973 C5            1 RES     
    3935 C5        -108.6100  -100.2098   167.7584 C5            1 RES     
    3936 C5        -108.1482   -99.8747   169.1990 C5            1 RES     
    3937 C5        -108.1338  -101.0136   170.2904 C5            1 RES     
    3938 C5        -109.6189  -101.3071   170.6413 C5            1 RES     
    3939 C5        -110.1675  -102.2856   171.6865 C5            1 RES     
    3940 C5        -111.7206  -102.1153   171.6087 C5            1 RES     
    3941 C5        -112.5843  -102.9635   172.5406 C5            1 RES     
    3942 C5        -112.4827  -102.5405   174.0007 C5            1 RES     
    3943 C5        -107.1073   -98.7463   169.2300 C5            1 RES     
    3944 C0        -107.4090   -97.6618   170.3440 C0            1 RES     
    3945 C5        -106.0489   -96.9365   170.7323 C5            1 RES     
    3946 C5        -105.6316   -96.9150   172.2444 C5            1 RES     
    3947 C5        -106.2281   -95.7303   173.0580 C5            1 RES     
    3948 C5        -105.5448   -94.3617   172.8259 C5            1 RES     
    3949 C5        -106.3299   -93.1759   173.4201 C5            1 RES     
    3950 C5        -106.3438   -93.0981   174.9548 C5            1 RES     
    3951 C5        -104.9617   -92.8817   175.6009 C5            1 RES     
    3952 C5        -104.2709   -91.5970   175.1327 C5            1 RES     
    3953 C5        -104.0785   -97.0827   172.4677 C5            1 RES     
    3954 C5        -103.1365   -96.2286   171.5748 C5            1 RES     
    3955 C5        -101.6501   -96.2603   171.9960 C5            1 RES     
    3956 C5        -100.9809   -97.6479   171.9369 C5            1 RES     
    3957 C5         -99.4786   -97.6108   172.3104 C5            1 RES     
    3958 C5         -98.6065   -96.8452   171.2910 C5            1 RES     
    3959 C5         -97.1116   -96.7923   171.6602 C5            1 RES     
    3960 C5         -96.4273   -98.1591   171.6717 C5            1 RES     
    3961 H6        -110.1075  -101.9675   160.9049 H6            1 RES     
    3962 H6        -111.5535  -101.7326   159.8689 H6            1 RES     
    3963 H6        -111.6177  -102.9144   161.2298 H6            1 RES     
    3964 H6        -111.3402   -99.8412   161.4888 H6            1 RES     
    3965 H6        -112.8396  -100.8020   161.7435 H6            1 RES     
    3966 H6        -111.8715  -100.2535   163.8981 H6            1 RES     
    3967 H6        -111.7776  -102.0327   163.6394 H6            1 RES     
    3968 H6        -109.4931   -99.9812   163.2662 H6            1 RES     
    3969 H6        -109.3130  -101.7624   163.0155 H6            1 RES     
    3970 H6        -110.1703  -100.4200   165.6285 H6            1 RES     
    3971 H6        -109.8844  -102.1914   165.4031 H6            1 RES     
    3972 H6        -107.4497  -101.6722   164.8123 H6            1 RES     
    3973 H6        -107.8093   -99.9299   165.0649 H6            1 RES     
    3974 H6        -107.7615  -102.1327   167.2492 H6            1 RES     
    3975 H6        -106.6394  -100.7429   166.9936 H6            1 RES     
    3976 H6        -109.6093  -100.6832   167.7798 H6            1 RES     
    3977 H6        -108.7458   -99.2348   167.2371 H6            1 RES     
    3978 H6        -108.9320   -99.3004   169.5376 H6            1 RES     
    3979 H6        -107.5811  -101.9059   169.9285 H6            1 RES     
    3980 H6        -107.6475  -100.6410   171.2189 H6            1 RES     
    3981 H6        -109.9849  -100.3445   171.0454 H6            1 RES     
    3982 H6        -110.1004  -101.5890   169.6898 H6            1 RES     
    3983 H6        -109.7886  -102.0228   172.6978 H6            1 RES     
    3984 H6        -109.8816  -103.3285   171.4374 H6            1 RES     
    3985 H6        -111.9993  -101.0479   171.7767 H6            1 RES     
    3986 H6        -112.0363  -102.3773   170.5750 H6            1 RES     
    3987 H6        -112.3428  -104.0385   172.4151 H6            1 RES     
    3988 H6        -113.6447  -102.8076   172.2344 H6            1 RES     
    3989 H6        -112.7664  -101.4700   174.1101 H6            1 RES     
    3990 H6        -111.4564  -102.6945   174.3863 H6            1 RES     
    3991 H6        -113.1941  -103.1468   174.6013 H6            1 RES     
    3992 H6        -107.0907   -98.1702   168.2796 H6            1 RES     
    3993 H6        -106.1203   -99.2489   169.3212 H6            1 RES     
    3994 H6        -105.2582   -97.5750   170.2947 H6            1 RES     
    3995 H6        -105.8908   -95.9742   170.2062 H6            1 RES     
    3996 H6        -106.0731   -97.8327   172.6948 H6            1 RES     
    3997 H6        -107.3118   -95.6809   172.8228 H6            1 RES     
    3998 H6        -106.1384   -95.9580   174.1422 H6            1 RES     
    3999 H6        -104.5174   -94.3597   173.2368 H6            1 RES     
    4000 H6        -105.4496   -94.1826   171.7385 H6            1 RES     
    4001 H6        -105.9034   -92.2340   173.0191 H6            1 RES     
    4002 H6        -107.3809   -93.2146   173.0673 H6            1 RES     
    4003 H6        -106.8037   -94.0190   175.3707 H6            1 RES     
    4004 H6        -106.9931   -92.2420   175.2414 H6            1 RES     
    4005 H6        -104.2970   -93.7485   175.4063 H6            1 RES     
    4006 H6        -105.1104   -92.8115   176.6996 H6            1 RES     
    4007 H6        -104.9203   -90.7155   175.3214 H6            1 RES     
    4008 H6        -103.3193   -91.4632   175.6875 H6            1 RES     
    4009 H6        -104.0218   -91.6450   174.0525 H6            1 RES     
    4010 H6        -103.8161   -98.1405   172.2496 H6            1 RES     
    4011 H6        -103.8611   -96.9107   173.5443 H6            1 RES     
    4012 H6        -103.4160   -95.1668   171.5937 H6            1 RES     
    4013 H6        -103.2205   -96.5570   170.5170 H6            1 RES     
    4014 H6        -101.1221   -95.5743   171.3042 H6            1 RES     
    4015 H6        -101.5523   -95.8524   173.0264 H6            1 RES     
    4016 H6        -101.0901   -98.0837   170.9200 H6            1 RES     
    4017 H6        -101.4914   -98.3140   172.6618 H6            1 RES     
    4018 H6         -99.3563   -97.1656   173.3221 H6            1 RES     
    4019 H6         -99.1243   -98.6640   172.3531 H6            1 RES     
    4020 H6         -98.9475   -95.7926   171.2325 H6            1 RES     
    4021 H6         -98.7179   -97.3054   170.2849 H6            1 RES     
    4022 H6         -96.5947   -96.1649   170.9006 H6            1 RES     
    4023 H6         -96.9839   -96.3055   172.6510 H6            1 RES     
    4024 H6         -96.8538   -98.8155   172.4564 H6            1 RES     
    4025 H6         -95.3460   -98.0251   171.8903 H6            1 RES     
    4026 H6         -96.5273   -98.6497   170.6803 H6            1 RES     
    4027 C0        -116.1826  -106.2926   165.7689 C0            1 RES     
    4028 C0        -117.5709  -106.2360   165.0122 C0            1 RES     
    4029 C0        -117.7588  -105.0254   164.4351 C0            1 RES     
    4030 S1        -119.1938  -104.8909   163.5752 S1            1 RES     
    4031 C0        -119.6668  -106.4865   163.9181 C0            1 RES     
    4032 C0        -118.7112  -107.0498   164.7760 C0            1 RES     
    4033 C0        -116.6973  -104.1593   164.7919 C0            1 RES     
    4034 C0        -115.8385  -104.8171   165.5372 C0            1 RES     
    4035 C0        -114.8566  -103.9293   166.0940 C0            1 RES     
    4036 C0        -115.0809  -102.6185   165.7141 C0            1 RES     
    4037 S1        -116.4669  -102.4030   164.5839 S1            1 RES     
    4038 H2        -118.8467  -108.0283   165.1583 H2            1 RES     
    4039 H2        -114.1486  -104.2192   166.8116 H2            1 RES     
    4040 N3        -121.9777  -109.3226   162.8891 N3            1 RES     
    4041 C0        -120.9700  -108.6226   163.4818 C0            1 RES     
    4042 C0        -120.8442  -107.2163   163.3273 C0            1 RES     
    4043 C0        -121.8292  -106.5851   162.5375 C0            1 RES     
    4044 N3        -121.8777  -105.2517   162.2826 N3            1 RES     
    4045 S1        -123.2183  -105.1165   161.3285 S1            1 RES     
    4046 N3        -123.7684  -106.6646   161.1921 N3            1 RES     
    4047 C0        -122.8674  -107.3570   161.9380 C0            1 RES     
    4048 C0        -122.9235  -108.7275   162.1217 C0            1 RES     
    4049 H4        -120.2549  -109.1860   164.0446 H4            1 RES     
    4050 C5        -120.9760  -108.5418   156.1857 C5            1 RES     
    4051 C5        -121.1017  -107.6142   157.3942 C5            1 RES     
    4052 C5        -120.5846  -108.2463   158.6976 C5            1 RES     
    4053 C5        -119.0676  -108.5103   158.6892 C5            1 RES     
    4054 C5        -118.6069  -109.1014   160.0304 C5            1 RES     
    4055 C5        -117.0690  -109.2315   160.0894 C5            1 RES     
    4056 C5        -116.5091  -109.7697   161.4331 C5            1 RES     
    4057 C5        -117.0805  -108.9814   162.6129 C5            1 RES     
    4058 C5        -116.3502  -109.0844   163.9756 C5            1 RES     
    4059 C5        -116.4185  -110.4343   164.7889 C5            1 RES     
    4060 C5        -117.8635  -110.5380   165.3510 C5            1 RES     
    4061 C5        -118.4480  -111.6251   166.2606 C5            1 RES     
    4062 C5        -119.9228  -111.1720   166.5187 C5            1 RES     
    4063 C5        -120.8005  -112.0526   167.4064 C5            1 RES     
    4064 C5        -120.3963  -112.0130   168.8749 C5            1 RES     
    4065 C5        -115.0993  -108.1958   164.0354 C5            1 RES     
    4066 C0        -114.9943  -107.3714   165.3835 C0            1 RES     
    4067 C5        -113.4686  -107.0088   165.6430 C5            1 RES     
    4068 C5        -112.8377  -107.4206   167.0189 C5            1 RES     
    4069 C5        -113.0404  -106.3775   168.1557 C5            1 RES     
    4070 C5        -112.1224  -105.1343   168.0803 C5            1 RES     
    4071 C5        -112.5393  -104.0050   169.0427 C5            1 RES     
    4072 C5        -112.3095  -104.2928   170.5347 C5            1 RES     
    4073 C5        -110.8331  -104.4816   170.9338 C5            1 RES     
    4074 C5        -109.9607  -103.2638   170.6132 C5            1 RES     
    4075 C5        -111.3408  -107.9058   166.9012 C5            1 RES     
    4076 C5        -110.3805  -107.0426   166.0371 C5            1 RES     
    4077 C5        -108.8896  -107.4332   166.1497 C5            1 RES     
    4078 C5        -108.5487  -108.8622   165.6821 C5            1 RES     
    4079 C5        -107.0349  -109.1785   165.7600 C5            1 RES     
    4080 C5        -106.1797  -108.3575   164.7698 C5            1 RES     
    4081 C5        -104.6703  -108.6564   164.8482 C5            1 RES     
    4082 C5        -104.2998  -110.0850   164.4497 C5            1 RES     
    4083 H6        -119.9145  -108.7706   155.9626 H6            1 RES     
    4084 H6        -121.4137  -108.0469   155.2933 H6            1 RES     
    4085 H6        -121.5273  -109.4880   156.3716 H6            1 RES     
    4086 H6        -120.5643  -106.6618   157.1925 H6            1 RES     
    4087 H6        -122.1799  -107.3778   157.5293 H6            1 RES     
    4088 H6        -120.8096  -107.5351   159.5237 H6            1 RES     
    4089 H6        -121.1374  -109.1900   158.8952 H6            1 RES     
    4090 H6        -118.5480  -107.5413   158.5160 H6            1 RES     
    4091 H6        -118.7917  -109.2151   157.8784 H6            1 RES     
    4092 H6        -118.9467  -108.4031   160.8248 H6            1 RES     
    4093 H6        -119.0826  -110.0921   160.1929 H6            1 RES     
    4094 H6        -116.7077  -109.8820   159.2642 H6            1 RES     
    4095 H6        -116.6453  -108.2143   159.9304 H6            1 RES     
    4096 H6        -116.7473  -110.8463   161.5699 H6            1 RES     
    4097 H6        -115.4045  -109.6542   161.3921 H6            1 RES     
    4098 H6        -118.1435  -109.2638   162.7289 H6            1 RES     
    4099 H6        -117.0803  -107.9022   162.3370 H6            1 RES     
    4100 H6        -116.9344  -108.4788   164.5680 H6            1 RES     
    4101 H6        -116.1289  -111.2977   164.1538 H6            1 RES     
    4102 H6        -115.7321  -110.3840   165.6628 H6            1 RES     
    4103 H6        -117.9515  -109.6502   166.0052 H6            1 RES     
    4104 H6        -118.5292  -110.4970   164.4725 H6            1 RES     
    4105 H6        -117.8766  -111.6806   167.2124 H6            1 RES     
    4106 H6        -118.4315  -112.6125   165.7544 H6            1 RES     
    4107 H6        -119.9391  -110.1433   166.9506 H6            1 RES     
    4108 H6        -120.4364  -111.1215   165.5334 H6            1 RES     
    4109 H6        -120.8155  -113.0921   167.0208 H6            1 RES     
    4110 H6        -121.8364  -111.6452   167.3477 H6            1 RES     
    4111 H6        -120.4254  -110.9665   169.2521 H6            1 RES     
    4112 H6        -119.3812  -112.4315   169.0168 H6            1 RES     
    4113 H6        -121.1242  -112.6104   169.4646 H6            1 RES     
    4114 H6        -115.1005  -107.4225   163.2369 H6            1 RES     
    4115 H6        -114.2401  -108.8706   163.8312 H6            1 RES     
    4116 H6        -112.9061  -107.6534   164.9411 H6            1 RES     
    4117 H6        -113.1880  -105.9921   165.3033 H6            1 RES     
    4118 H6        -113.3937  -108.3270   167.3494 H6            1 RES     
    4119 H6        -114.1111  -106.0846   168.1478 H6            1 RES     
    4120 H6        -112.8422  -106.8683   169.1331 H6            1 RES     
    4121 H6        -111.0691  -105.4099   168.2780 H6            1 RES     
    4122 H6        -112.1528  -104.7215   167.0545 H6            1 RES     
    4123 H6        -111.9854  -103.0845   168.7677 H6            1 RES     
    4124 H6        -113.6146  -103.7742   168.8979 H6            1 RES     
    4125 H6        -112.8889  -105.1909   170.8348 H6            1 RES     
    4126 H6        -112.7112  -103.4292   171.1087 H6            1 RES     
    4127 H6        -110.4053  -105.3798   170.4430 H6            1 RES     
    4128 H6        -110.7995  -104.6495   172.0315 H6            1 RES     
    4129 H6        -110.3715  -102.3526   171.0984 H6            1 RES     
    4130 H6        -108.9312  -103.4344   170.9906 H6            1 RES     
    4131 H6        -109.8899  -103.0966   169.5186 H6            1 RES     
    4132 H6        -111.3456  -108.9106   166.4262 H6            1 RES     
    4133 H6        -110.9350  -108.0353   167.9281 H6            1 RES     
    4134 H6        -110.4207  -105.9836   166.3249 H6            1 RES     
    4135 H6        -110.6880  -107.0904   164.9707 H6            1 RES     
    4136 H6        -108.3354  -106.7059   165.5239 H6            1 RES     
    4137 H6        -108.5559  -107.3054   167.2033 H6            1 RES     
    4138 H6        -108.8975  -109.0178   164.6382 H6            1 RES     
    4139 H6        -109.0770  -109.5814   166.3405 H6            1 RES     
    4140 H6        -106.6722  -109.0148   166.7985 H6            1 RES     
    4141 H6        -106.9116  -110.2570   165.5187 H6            1 RES     
    4142 H6        -106.2927  -107.2782   164.9933 H6            1 RES     
    4143 H6        -106.5342  -108.5387   163.7316 H6            1 RES     
    4144 H6        -104.1492  -107.9671   164.1474 H6            1 RES     
    4145 H6        -104.2965  -108.4491   165.8740 H6            1 RES     
    4146 H6        -104.7360  -110.8238   165.1514 H6            1 RES     
    4147 H6        -103.1947  -110.1982   164.4793 H6            1 RES     
    4148 H6        -104.6477  -110.3007   163.4173 H6            1 RES     
    4149 C0        -125.9869  -112.9947   160.9179 C0            1 RES     
    4150 C0        -127.4272  -112.5177   160.4693 C0            1 RES     
    4151 C0        -127.4352  -111.1911   160.1978 C0            1 RES     
    4152 S1        -128.9192  -110.6070   159.6749 S1            1 RES     
    4153 C0        -129.6663  -112.1302   159.7702 C0            1 RES     
    4154 C0        -128.7372  -113.0395   160.2958 C0            1 RES     
    4155 C0        -126.1723  -110.6342   160.5129 C0            1 RES     
    4156 C0        -125.3735  -111.5901   160.9298 C0            1 RES     
    4157 C0        -124.1534  -111.0461   161.4566 C0            1 RES     
    4158 C0        -124.1459  -109.6642   161.4017 C0            1 RES     
    4159 S1        -125.6053  -108.9470   160.6265 S1            1 RES     
    4160 H2        -129.0206  -114.0415   160.4896 H2            1 RES     
    4161 H2        -123.4256  -111.6175   161.9507 H2            1 RES     
    4162 N3        -132.6559  -114.1909   158.6484 N3            1 RES     
    4163 C0        -131.4456  -113.8393   159.1665 C0            1 RES     
    4164 C0        -131.0464  -112.4810   159.2803 C0            1 RES     
    4165 C0        -131.9795  -111.5177   158.8395 C0            1 RES     
    4166 N3        -131.7790  -110.1747   158.8755 N3            1 RES     
    4167 S1        -133.1856  -109.5842   158.2442 S1            1 RES     
    4168 N3        -134.0678  -110.9345   157.9037 N3            1 RES     
    4169 C0        -133.2355  -111.9311   158.3061 C0            1 RES     
    4170 C0        -133.5554  -113.2744   158.2142 C0            1 RES     
    4171 H4        -130.7924  -114.6365   159.4549 H4            1 RES     
    4172 C5        -132.5118  -112.0278   152.1793 C5            1 RES     
    4173 C5        -132.2565  -111.4066   153.5525 C5            1 RES     
    4174 C5        -131.6997  -112.4108   154.5759 C5            1 RES     
    4175 C5        -130.2925  -112.9267   154.2231 C5            1 RES     
    4176 C5        -129.7758  -113.8906   155.3020 C5            1 RES     
    4177 C5        -128.3098  -114.2983   155.0371 C5            1 RES     
    4178 C5        -127.6857  -115.2297   156.1102 C5            1 RES     
    4179 C5        -127.8947  -114.6568   157.5130 C5            1 RES     
    4180 C5        -127.0102  -115.2068   158.6602 C5            1 RES     
    4181 C5        -127.2445  -116.6778   159.1794 C5            1 RES     
    4182 C5        -128.5790  -116.6574   159.9752 C5            1 RES     
    4183 C5        -129.2415  -117.8098   160.7394 C5            1 RES     
    4184 C5        -130.5307  -117.1799   161.3624 C5            1 RES     
    4185 C5        -131.4354  -118.0785   162.2038 C5            1 RES     
    4186 C5        -130.8197  -118.4603   163.5442 C5            1 RES     
    4187 C5        -125.6035  -114.5910   158.6584 C5            1 RES     
    4188 C0        -125.1269  -114.1420   160.1003 C0            1 RES     
    4189 C5        -123.5377  -114.1243   160.1305 C5            1 RES     
    4190 C5        -122.8133  -114.9551   161.2466 C5            1 RES     
    4191 C5        -122.6182  -114.1930   162.5892 C5            1 RES     
    4192 C5        -121.4772  -113.1481   162.5937 C5            1 RES     
    4193 C5        -121.4963  -112.2246   163.8276 C5            1 RES     
    4194 C5        -121.1155  -112.8942   165.1573 C5            1 RES     
    4195 C5        -119.6712  -113.4280   165.2188 C5            1 RES     
    4196 C5        -118.6158  -112.3410   164.9914 C5            1 RES     
    4197 C5        -121.4888  -115.6529   160.7476 C5            1 RES     
    4198 C5        -120.5046  -114.7910   159.9094 C5            1 RES     
    4199 C5        -119.1318  -115.4520   159.6520 C5            1 RES     
    4200 C5        -119.1770  -116.7659   158.8468 C5            1 RES     
    4201 C5        -117.7712  -117.3518   158.5667 C5            1 RES     
    4202 C5        -116.9162  -116.4819   157.6190 C5            1 RES     
    4203 C5        -115.5109  -117.0504   157.3438 C5            1 RES     
    4204 C5        -115.5174  -118.3855   156.5994 C5            1 RES     
    4205 H6        -131.5687  -112.3793   151.7149 H6            1 RES     
    4206 H6        -132.9605  -111.2663   151.5072 H6            1 RES     
    4207 H6        -133.2189  -112.8796   152.2710 H6            1 RES     
    4208 H6        -131.5638  -110.5428   153.4496 H6            1 RES     
    4209 H6        -133.2272  -111.0240   153.9372 H6            1 RES     
    4210 H6        -131.6430  -111.8881   155.5571 H6            1 RES     
    4211 H6        -132.4060  -113.2626   154.6797 H6            1 RES     
    4212 H6        -129.6092  -112.0506   154.1543 H6            1 RES     
    4213 H6        -130.2964  -113.4557   153.2482 H6            1 RES     
    4214 H6        -129.8374  -113.3527   156.2720 H6            1 RES     
    4215 H6        -130.4228  -114.7926   155.3477 H6            1 RES     
    4216 H6        -128.2218  -114.7870   154.0431 H6            1 RES     
    4217 H6        -127.7068  -113.3628   155.0101 H6            1 RES     
    4218 H6        -128.1255  -116.2492   156.0681 H6            1 RES     
    4219 H6        -126.6003  -115.3031   155.8823 H6            1 RES     
    4220 H6        -128.9645  -114.7681   157.7709 H6            1 RES     
    4221 H6        -127.7047  -113.5601   157.4676 H6            1 RES     
    4222 H6        -127.3574  -114.6666   159.4643 H6            1 RES     
    4223 H6        -127.2432  -117.4026   158.3383 H6            1 RES     
    4224 H6        -126.4418  -116.9576   159.8969 H6            1 RES     
    4225 H6        -128.3777  -115.9491   160.8008 H6            1 RES     
    4226 H6        -129.3429  -116.2930   159.2678 H6            1 RES     
    4227 H6        -128.5610  -118.1890   161.5322 H6            1 RES     
    4228 H6        -129.5113  -118.6358   160.0492 H6            1 RES     
    4229 H6        -130.2628  -116.2968   161.9895 H6            1 RES     
    4230 H6        -131.1614  -116.8077   160.5252 H6            1 RES     
    4231 H6        -131.7289  -118.9775   161.6249 H6            1 RES     
    4232 H6        -132.3572  -117.4939   162.4292 H6            1 RES     
    4233 H6        -130.5684  -117.5450   164.1249 H6            1 RES     
    4234 H6        -129.9079  -119.0716   163.4005 H6            1 RES     
    4235 H6        -131.5631  -119.0437   164.1284 H6            1 RES     
    4236 H6        -125.5574  -113.6623   158.0494 H6            1 RES     
    4237 H6        -124.9482  -115.3377   158.1602 H6            1 RES     
    4238 H6        -123.2360  -114.6720   159.2175 H6            1 RES     
    4239 H6        -123.0997  -113.1213   159.9575 H6            1 RES     
    4240 H6        -123.4950  -115.8023   161.4861 H6            1 RES     
    4241 H6        -123.5907  -113.7238   162.8467 H6            1 RES     
    4242 H6        -122.3873  -114.9288   163.3897 H6            1 RES     
    4243 H6        -120.4897  -113.6428   162.5253 H6            1 RES     
    4244 H6        -121.5698  -112.5046   161.6987 H6            1 RES     
    4245 H6        -120.8053  -111.3768   163.6446 H6            1 RES     
    4246 H6        -122.5068  -111.7814   163.9418 H6            1 RES     
    4247 H6        -121.8226  -113.7222   165.3738 H6            1 RES     
    4248 H6        -121.2341  -112.1352   165.9612 H6            1 RES     
    4249 H6        -119.5225  -114.2446   164.4826 H6            1 RES     
    4250 H6        -119.5125  -113.8550   166.2320 H6            1 RES     
    4251 H6        -118.7462  -111.5138   165.7215 H6            1 RES     
    4252 H6        -117.6024  -112.7740   165.1214 H6            1 RES     
    4253 H6        -118.6734  -111.9337   163.9610 H6            1 RES     
    4254 H6        -121.7784  -116.4992   160.0880 H6            1 RES     
    4255 H6        -120.9730  -116.0916   161.6293 H6            1 RES     
    4256 H6        -120.2746  -113.8405   160.4090 H6            1 RES     
    4257 H6        -120.9693  -114.5295   158.9349 H6            1 RES     
    4258 H6        -118.5336  -114.7055   159.0928 H6            1 RES     
    4259 H6        -118.6266  -115.6386   160.6254 H6            1 RES     
    4260 H6        -119.7013  -116.6056   157.8797 H6            1 RES     
    4261 H6        -119.7436  -117.5170   159.4338 H6            1 RES     
    4262 H6        -117.2327  -117.5056   159.5275 H6            1 RES     
    4263 H6        -117.9183  -118.3465   158.0918 H6            1 RES     
    4264 H6        -116.7617  -115.4840   158.0750 H6            1 RES     
    4265 H6        -117.4507  -116.3463   156.6534 H6            1 RES     
    4266 H6        -114.9640  -116.3165   156.7113 H6            1 RES     
    4267 H6        -114.9542  -117.1614   158.2991 H6            1 RES     
    4268 H6        -115.9928  -119.1818   157.2064 H6            1 RES     
    4269 H6        -114.4700  -118.6943   156.3927 H6            1 RES     
    4270 H6        -116.0519  -118.2855   155.6310 H6            1 RES     
    4271 C0        -137.6034  -116.5291   156.7778 C0            1 RES     
    4272 C0        -138.9585  -115.7146   156.7206 C0            1 RES     
    4273 C0        -138.7228  -114.3812   156.7314 C0            1 RES     
    4274 S1        -140.1083  -113.4391   156.6331 S1            1 RES     
    4275 C0        -141.1412  -114.7862   156.5579 C0            1 RES     
    4276 C0        -140.3607  -115.9425   156.6991 C0            1 RES     
    4277 C0        -137.3378  -114.1451   156.9050 C0            1 RES     
    4278 C0        -136.7091  -115.2973   156.9574 C0            1 RES     
    4279 C0        -135.3368  -115.1163   157.3398 C0            1 RES     
    4280 C0        -135.0424  -113.7842   157.5669 C0            1 RES     
    4281 S1        -136.4129  -112.6593   157.2486 S1            1 RES     
    4282 H2        -140.8199  -116.8963   156.7357 H2            1 RES     
    4283 H2        -134.6831  -115.9071   157.5583 H2            1 RES     
    4284 N3        -144.6343  -115.9651   155.6352 N3            1 RES     
    4285 C0        -143.3139  -115.9642   155.9719 C0            1 RES     
    4286 C0        -142.6213  -114.7633   156.2810 C0            1 RES     
    4287 C0        -143.3815  -113.5749   156.2329 C0            1 RES     
    4288 N3        -142.8956  -112.3353   156.5024 N3            1 RES     
    4289 S1        -144.2210  -111.3748   156.2863 S1            1 RES     
    4290 N3        -145.4118  -112.4297   155.8539 N3            1 RES     
    4291 C0        -144.7615  -113.6231   155.8776 C0            1 RES     
    4292 C0        -145.3712  -114.8288   155.5774 C0            1 RES     
    4293 H4        -142.8108  -116.9088   155.9612 H4            1 RES     
    4294 C5        -144.9883  -112.3869   149.8369 C5            1 RES     
    4295 C5        -144.4062  -112.1642   151.2327 C5            1 RES     
    4296 C5        -143.9319  -113.4643   151.9041 C5            1 RES     
    4297 C5        -142.7354  -114.1198   151.1903 C5            1 RES     
    4298 C5        -142.2831  -115.3876   151.9308 C5            1 RES     
    4299 C5        -140.9936  -115.9709   151.3122 C5            1 RES     
    4300 C5        -140.4315  -117.2251   152.0331 C5            1 RES     
    4301 C5        -140.3038  -116.9742   153.5366 C5            1 RES     
    4302 C5        -139.3977  -117.9271   154.3564 C5            1 RES     
    4303 C5        -139.8617  -119.4150   154.6004 C5            1 RES     
    4304 C5        -141.0284  -119.3508   155.6247 C5            1 RES     
    4305 C5        -141.8015  -120.5175   156.2509 C5            1 RES     
    4306 C5        -142.8199  -119.8378   157.2246 C5            1 RES     
    4307 C5        -143.7612  -120.7379   158.0232 C5            1 RES     
    4308 C5        -143.0503  -121.5289   159.1142 C5            1 RES     
    4309 C5        -137.9080  -117.5847   154.2100 C5            1 RES     
    4310 C0        -137.1388  -117.5817   155.5944 C0            1 RES     
    4311 C5        -135.5959  -117.8502   155.3219 C5            1 RES     
    4312 C5        -134.9091  -119.0360   156.0855 C5            1 RES     
    4313 C5        -134.3595  -118.6609   157.4921 C5            1 RES     
    4314 C5        -133.0337  -117.8634   157.4901 C5            1 RES     
    4315 C5        -132.6726  -117.2708   158.8664 C5            1 RES     
    4316 C5        -132.2515  -118.2932   159.9337 C5            1 RES     
    4317 C5        -130.9618  -119.0707   159.6069 C5            1 RES     
    4318 C5        -129.7440  -118.1630   159.4073 C5            1 RES     
    4319 C5        -133.8529  -119.8161   155.2101 C5            1 RES     
    4320 C5        -132.8421  -118.9658   154.3920 C5            1 RES     
    4321 C5        -131.6957  -119.7767   153.7469 C5            1 RES     
    4322 C5        -132.1391  -120.8329   152.7151 C5            1 RES     
    4323 C5        -130.9481  -121.5722   152.0572 C5            1 RES     
    4324 C5        -130.0766  -120.6657   151.1603 C5            1 RES     
    4325 C5        -128.8816  -121.3895   150.5107 C5            1 RES     
    4326 C5        -129.2831  -122.4873   149.5255 C5            1 RES     
    4327 H6        -144.2213  -112.7776   149.1385 H6            1 RES     
    4328 H6        -145.3582  -111.4210   149.4327 H6            1 RES     
    4329 H6        -145.8396  -113.0986   149.8873 H6            1 RES     
    4330 H6        -143.5679  -111.4358   151.1768 H6            1 RES     
    4331 H6        -145.2050  -111.7201   151.8662 H6            1 RES     
    4332 H6        -143.6205  -113.2079   152.9415 H6            1 RES     
    4333 H6        -144.7807  -114.1792   151.9659 H6            1 RES     
    4334 H6        -141.8985  -113.3861   151.1715 H6            1 RES     
    4335 H6        -142.9963  -114.3930   150.1474 H6            1 RES     
    4336 H6        -142.0844  -115.0933   152.9834 H6            1 RES     
    4337 H6        -143.0939  -116.1470   151.9153 H6            1 RES     
    4338 H6        -141.1600  -116.2171   150.2415 H6            1 RES     
    4339 H6        -140.2154  -115.1763   151.3610 H6            1 RES     
    4340 H6        -141.0804  -118.1121   151.8696 H6            1 RES     
    4341 H6        -139.4328  -117.4310   151.5911 H6            1 RES     
    4342 H6        -141.3225  -116.9545   153.9668 H6            1 RES     
    4343 H6        -139.8926  -115.9490   153.6798 H6            1 RES     
    4344 H6        -139.4988  -117.5412   155.3049 H6            1 RES     
    4345 H6        -140.1395  -119.9079   153.6451 H6            1 RES     
    4346 H6        -139.0403  -119.9933   155.0783 H6            1 RES     
    4347 H6        -140.5607  -118.9055   156.5229 H6            1 RES     
    4348 H6        -141.7927  -118.7009   155.1663 H6            1 RES     
    4349 H6        -141.1083  -121.1872   156.8043 H6            1 RES     
    4350 H6        -142.3406  -121.0955   155.4719 H6            1 RES     
    4351 H6        -142.2798  -119.1900   157.9551 H6            1 RES     
    4352 H6        -143.4730  -119.1729   156.6177 H6            1 RES     
    4353 H6        -144.3223  -121.4079   157.3407 H6            1 RES     
    4354 H6        -144.4933  -120.0714   158.5354 H6            1 RES     
    4355 H6        -142.5262  -120.8363   159.8098 H6            1 RES     
    4356 H6        -142.3217  -122.2385   158.6768 H6            1 RES     
    4357 H6        -143.8066  -122.0950   159.6990 H6            1 RES     
    4358 H6        -137.7550  -116.5607   153.8056 H6            1 RES     
    4359 H6        -137.5083  -118.2945   153.4540 H6            1 RES     
    4360 H6        -135.5564  -118.2095   154.2761 H6            1 RES     
    4361 H6        -134.9841  -116.9275   155.2760 H6            1 RES     
    4362 H6        -135.7131  -119.7830   156.2737 H6            1 RES     
    4363 H6        -135.1603  -118.1036   158.0214 H6            1 RES     
    4364 H6        -134.1756  -119.5945   158.0665 H6            1 RES     
    4365 H6        -132.1960  -118.4928   157.1343 H6            1 RES     
    4366 H6        -133.1178  -117.0198   156.7796 H6            1 RES     
    4367 H6        -131.8512  -116.5383   158.7306 H6            1 RES     
    4368 H6        -133.5368  -116.6975   159.2602 H6            1 RES     
    4369 H6        -133.0794  -119.0119   160.1087 H6            1 RES     
    4370 H6        -132.0851  -117.7382   160.8828 H6            1 RES     
    4371 H6        -131.1014  -119.7021   158.7054 H6            1 RES     
    4372 H6        -130.7501  -119.7472   160.4623 H6            1 RES     
    4373 H6        -129.5852  -117.5232   160.3017 H6            1 RES     
    4374 H6        -128.8386  -118.7850   159.2496 H6            1 RES     
    4375 H6        -129.8648  -117.5189   158.5120 H6            1 RES     
    4376 H6        -134.4108  -120.4173   154.4602 H6            1 RES     
    4377 H6        -133.3183  -120.5350   155.8684 H6            1 RES     
    4378 H6        -132.3431  -118.2166   155.0210 H6            1 RES     
    4379 H6        -133.3789  -118.4031   153.5988 H6            1 RES     
    4380 H6        -131.0411  -119.0352   153.2472 H6            1 RES     
    4381 H6        -131.1039  -120.2746   154.5465 H6            1 RES     
    4382 H6        -132.7540  -120.3581   151.9199 H6            1 RES     
    4383 H6        -132.7600  -121.5907   153.2345 H6            1 RES     
    4384 H6        -130.3190  -122.0417   152.8449 H6            1 RES     
    4385 H6        -131.3728  -122.3841   151.4270 H6            1 RES     
    4386 H6        -129.6467  -119.8476   151.7715 H6            1 RES     
    4387 H6        -130.7063  -120.2131   150.3634 H6            1 RES     
    4388 H6        -128.2900  -120.6339   149.9479 H6            1 RES     
    4389 H6        -128.2267  -121.8200   151.2985 H6            1 RES     
    4390 H6        -129.8228  -123.3090   150.0374 H6            1 RES     
    4391 H6        -128.3682  -122.9166   149.0633 H6            1 RES     
    4392 H6        -129.9209  -122.0680   148.7187 H6            1 RES     
    4393 C0        -150.1878  -116.8885   154.3127 C0            1 RES     
    4394 C0        -151.3308  -115.8594   154.6835 C0            1 RES     
    4395 C0        -150.8167  -114.6292   154.9201 C0            1 RES     
    4396 S1        -151.9678  -113.4631   155.2833 S1            1 RES     
    4397 C0        -153.2642  -114.5515   155.1351 C0            1 RES     
    4398 C0        -152.7367  -115.8265   154.8856 C0            1 RES     
    4399 C0        -149.4031  -114.6874   154.8690 C0            1 RES     
    4400 C0        -149.0345  -115.9108   154.5642 C0            1 RES     
    4401 C0        -147.6141  -116.0690   154.7049 C0            1 RES     
    4402 C0        -147.0116  -114.9017   155.1375 C0            1 RES     
    4403 S1        -148.1417  -113.5114   155.3239 S1            1 RES     
    4404 H2        -153.3786  -116.6661   154.8147 H2            1 RES     
    4405 H2        -147.1196  -116.9909   154.6282 H2            1 RES     
    4406 N3        -157.0256  -114.8470   154.6796 N3            1 RES     
    4407 C0        -155.7006  -115.1573   154.7497 C0            1 RES     
    4408 C0        -154.7295  -114.2047   155.1580 C0            1 RES     
    4409 C0        -155.2168  -112.9246   155.4996 C0            1 RES     
    4410 N3        -154.4428  -111.8893   155.9173 N3            1 RES     
    4411 S1        -155.5494  -110.6882   156.1597 S1            1 RES     
    4412 N3        -156.9886  -111.3848   155.7583 N3            1 RES     
    4413 C0        -156.6122  -112.6447   155.4135 C0            1 RES     
    4414 C0        -157.5029  -113.6185   154.9968 C0            1 RES     
    4415 H4        -155.4183  -116.1455   154.4506 H4            1 RES     
    4416 C5        -157.4592  -109.9888   149.9090 C5            1 RES     
    4417 C5        -156.6434  -110.2095   151.1827 C5            1 RES     
    4418 C5        -156.3640  -111.6943   151.4716 C5            1 RES     
    4419 C5        -155.4541  -112.3605   150.4234 C5            1 RES     
    4420 C5        -155.1789  -113.8270   150.7895 C5            1 RES     
    4421 C5        -154.1497  -114.4632   149.8294 C5            1 RES     
    4422 C5        -153.7684  -115.9311   150.1584 C5            1 RES     
    4423 C5        -153.3693  -116.0710   151.6285 C5            1 RES     
    4424 C5        -152.5770  -117.3348   152.0477 C5            1 RES     
    4425 C5        -153.3069  -118.7331   152.0681 C5            1 RES     
    4426 C5        -154.2686  -118.7109   153.2885 C5            1 RES     
    4427 C5        -155.1720  -119.8389   153.8006 C5            1 RES     
    4428 C5        -155.8663  -119.2426   155.0692 C5            1 RES     
    4429 C5        -156.8497  -120.1274   155.8333 C5            1 RES     
    4430 C5        -156.1711  -121.2668   156.5834 C5            1 RES     
    4431 C5        -151.0869  -117.2337   151.6910 C5            1 RES     
    4432 C0        -150.1389  -117.6944   152.8731 C0            1 RES     
    4433 C5        -148.7467  -118.1565   152.2608 C5            1 RES     
    4434 C5        -148.2240  -119.5910   152.6207 C5            1 RES     
    4435 C5        -147.4054  -119.6631   153.9421 C5            1 RES     
    4436 C5        -145.9549  -119.1328   153.8481 C5            1 RES     
    4437 C5        -145.2763  -118.9568   155.2208 C5            1 RES     
    4438 C5        -144.9306  -120.2609   155.9566 C5            1 RES     
    4439 C5        -143.8995  -121.1519   155.2371 C5            1 RES     
    4440 C5        -142.5590  -120.4505   154.9966 C5            1 RES     
    4441 C5        -147.5000  -120.3134   151.4189 C5            1 RES     
    4442 C5        -146.4631  -119.4836   150.6125 C5            1 RES     
    4443 C5        -145.6247  -120.3059   149.6082 C5            1 RES     
    4444 C5        -146.4309  -120.9923   148.4877 C5            1 RES     
    4445 C5        -145.5360  -121.7510   147.4770 C5            1 RES     
    4446 C5        -144.6331  -120.8244   146.6332 C5            1 RES     
    4447 C5        -143.7298  -121.5709   145.6329 C5            1 RES     
    4448 C5        -144.4976  -122.3155   144.5407 C5            1 RES     
    4449 H6        -156.9051  -110.3305   149.0118 H6            1 RES     
    4450 H6        -157.6697  -108.9052   149.7885 H6            1 RES     
    4451 H6        -158.4260  -110.5317   149.9758 H6            1 RES     
    4452 H6        -155.6864  -109.6471   151.1164 H6            1 RES     
    4453 H6        -157.2262  -109.7958   152.0346 H6            1 RES     
    4454 H6        -155.8553  -111.7502   152.4601 H6            1 RES     
    4455 H6        -157.3273  -112.2433   151.5483 H6            1 RES     
    4456 H6        -154.4919  -111.8016   150.3940 H6            1 RES     
    4457 H6        -155.9184  -112.3281   149.4166 H6            1 RES     
    4458 H6        -154.7686  -113.8306   151.8218 H6            1 RES     
    4459 H6        -156.1264  -114.4068   150.7756 H6            1 RES     
    4460 H6        -154.5210  -114.4149   148.7832 H6            1 RES     
    4461 H6        -153.2212  -113.8518   149.8887 H6            1 RES     
    4462 H6        -154.6087  -116.6262   149.9454 H6            1 RES     
    4463 H6        -152.9132  -116.1978   149.5005 H6            1 RES     
    4464 H6        -154.2853  -115.9760   152.2410 H6            1 RES     
    4465 H6        -152.7320  -115.1974   151.8957 H6            1 RES     
    4466 H6        -152.4520  -117.1737   153.0563 H6            1 RES     
    4467 H6        -153.8216  -118.9285   151.1040 H6            1 RES     
    4468 H6        -152.5667  -119.5430   152.2517 H6            1 RES     
    4469 H6        -153.5891  -118.5806   154.1517 H6            1 RES     
    4470 H6        -154.9354  -117.8471   153.1274 H6            1 RES     
    4471 H6        -154.5640  -120.7317   154.0626 H6            1 RES     
    4472 H6        -155.9311  -120.1118   153.0385 H6            1 RES     
    4473 H6        -155.0984  -118.8917   155.7987 H6            1 RES     
    4474 H6        -156.4446  -118.3487   154.7471 H6            1 RES     
    4475 H6        -157.6356  -120.5072   155.1494 H6            1 RES     
    4476 H6        -157.3385  -119.4841   156.6012 H6            1 RES     
    4477 H6        -155.4143  -120.8621   157.2916 H6            1 RES     
    4478 H6        -155.6837  -121.9685   155.8792 H6            1 RES     
    4479 H6        -156.9360  -121.8142   157.1748 H6            1 RES     
    4480 H6        -150.7800  -116.1861   151.4817 H6            1 RES     
    4481 H6        -150.9642  -117.8024   150.7440 H6            1 RES     
    4482 H6        -148.9397  -118.2582   151.1760 H6            1 RES     
    4483 H6        -147.9655  -117.3711   152.2871 H6            1 RES     
    4484 H6        -149.1322  -120.2087   152.8037 H6            1 RES     
    4485 H6        -147.9814  -119.1160   154.7174 H6            1 RES     
    4486 H6        -147.3425  -120.7238   154.2683 H6            1 RES     
    4487 H6        -145.3330  -119.7963   153.2177 H6            1 RES     
    4488 H6        -145.9609  -118.1432   153.3538 H6            1 RES     
    4489 H6        -144.3466  -118.3684   155.0819 H6            1 RES     
    4490 H6        -145.9302  -118.3512   155.8813 H6            1 RES     
    4491 H6        -145.8577  -120.8442   156.1372 H6            1 RES     
    4492 H6        -144.5110  -119.9851   156.9488 H6            1 RES     
    4493 H6        -144.3025  -121.5166   154.2699 H6            1 RES     
    4494 H6        -143.7134  -122.0386   155.8801 H6            1 RES     
    4495 H6        -142.1369  -120.0794   155.9550 H6            1 RES     
    4496 H6        -141.8410  -121.1658   154.5448 H6            1 RES     
    4497 H6        -142.6703  -119.6012   154.2912 H6            1 RES     
    4498 H6        -148.2781  -120.6120   150.6836 H6            1 RES     
    4499 H6        -147.0402  -121.2503   151.8020 H6            1 RES     
    4500 H6        -145.7282  -119.0046   151.2731 H6            1 RES     
    4501 H6        -146.9784  -118.6636   150.0685 H6            1 RES     
    4502 H6        -144.9079  -119.5934   149.1537 H6            1 RES     
    4503 H6        -145.0415  -121.0753   150.1610 H6            1 RES     
    4504 H6        -147.0407  -120.2421   147.9388 H6            1 RES     
    4505 H6        -147.1157  -121.7311   148.9513 H6            1 RES     
    4506 H6        -144.9125  -122.4969   148.0170 H6            1 RES     
    4507 H6        -146.2127  -122.3026   146.7883 H6            1 RES     
    4508 H6        -143.9529  -120.2632   147.3040 H6            1 RES     
    4509 H6        -145.2622  -120.0924   146.0811 H6            1 RES     
    4510 H6        -143.0802  -120.8188   145.1328 H6            1 RES     
    4511 H6        -143.0730  -122.2841   146.1759 H6            1 RES     
    4512 H6        -145.1187  -123.1277   144.9685 H6            1 RES     
    4513 H6        -143.7742  -122.7760   143.8340 H6            1 RES     
    4514 H6        -145.1431  -121.6115   143.9738 H6            1 RES     
    4515 C0        -162.7811  -114.4426   154.2876 C0            1 RES     
    4516 C0        -163.6102  -113.3473   155.0725 C0            1 RES     
    4517 C0        -162.8159  -112.3182   155.4513 C0            1 RES     
    4518 S1        -163.6246  -111.0887   156.2583 S1            1 RES     
    4519 C0        -165.1310  -111.8664   156.1432 C0            1 RES     
    4520 C0        -164.9310  -113.1178   155.5429 C0            1 RES     
    4521 C0        -161.4708  -112.6091   155.1192 C0            1 RES     
    4522 C0        -161.4213  -113.7702   154.5067 C0            1 RES     
    4523 C0        -160.0628  -114.2035   154.3371 C0            1 RES     
    4524 C0        -159.1676  -113.2965   154.8744 C0            1 RES     
    4525 S1        -159.9342  -111.8144   155.5532 S1            1 RES     
    4526 H2        -165.7407  -113.7907   155.4271 H2            1 RES     
    4527 H2        -159.7936  -115.1527   153.9810 H2            1 RES     
    4528 N3        -168.8937  -111.3819   156.3674 N3            1 RES     
    4529 C0        -167.6701  -111.9271   156.1173 C0            1 RES     
    4530 C0        -166.4685  -111.2839   156.5169 C0            1 RES     
    4531 C0        -166.6150  -110.0567   157.1989 C0            1 RES     
    4532 N3        -165.5847  -109.3022   157.6622 N3            1 RES     
    4533 S1        -166.3608  -108.0184   158.3517 S1            1 RES     
    4534 N3        -167.9587  -108.3367   158.1007 N3            1 RES     
    4535 C0        -167.9154  -109.5244   157.4410 C0            1 RES     
    4536 C0        -169.0452  -110.2000   157.0137 C0            1 RES     
    4537 H4        -167.6528  -112.8496   155.5749 H4            1 RES     
    4538 C5        -168.9789  -105.5309   152.8593 C5            1 RES     
    4539 C5        -168.0501  -106.1872   153.8807 C5            1 RES     
    4540 C5        -168.0549  -107.7234   153.8023 C5            1 RES     
    4541 C5        -167.4734  -108.2703   152.4857 C5            1 RES     
    4542 C5        -167.4670  -109.8066   152.4859 C5            1 RES     
    4543 C5        -166.7509  -110.3666   151.2372 C5            1 RES     
    4544 C5        -166.6478  -111.9141   151.1811 C5            1 RES     
    4545 C5        -166.0752  -112.4668   152.4874 C5            1 RES     
    4546 C5        -165.5182  -113.9127   152.4806 C5            1 RES     
    4547 C5        -166.5188  -115.1258   152.3557 C5            1 RES     
    4548 C5        -167.2625  -115.2260   153.7165 C5            1 RES     
    4549 C5        -168.3003  -116.2673   154.1519 C5            1 RES     
    4550 C5        -168.6560  -115.8772   155.6244 C5            1 RES     
    4551 C5        -169.6819  -116.7319   156.3667 C5            1 RES     
    4552 C5        -169.1593  -118.1177   156.7246 C5            1 RES     
    4553 C5        -164.1103  -113.9923   151.8728 C5            1 RES     
    4554 C0        -163.1187  -114.8793   152.7321 C0            1 RES     
    4555 C5        -161.9635  -115.4191   151.7830 C5            1 RES     
    4556 C5        -161.7122  -116.9668   151.7363 C5            1 RES     
    4557 C5        -160.7419  -117.4929   152.8332 C5            1 RES     
    4558 C5        -159.2418  -117.2178   152.5726 C5            1 RES     
    4559 C5        -158.3461  -117.4946   153.7960 C5            1 RES     
    4560 C5        -158.1823  -118.9759   154.1707 C5            1 RES     
    4561 C5        -157.4833  -119.8369   153.1007 C5            1 RES     
    4562 C5        -156.0744  -119.3443   152.7553 C5            1 RES     
    4563 C5        -161.3449  -117.4983   150.2965 C5            1 RES     
    4564 C5        -160.2854  -116.6955   149.4923 C5            1 RES     
    4565 C5        -159.7998  -117.3893   148.1997 C5            1 RES     
    4566 C5        -160.8905  -117.6378   147.1390 C5            1 RES     
    4567 C5        -160.3378  -118.2793   145.8425 C5            1 RES     
    4568 C5        -159.3925  -117.3516   145.0477 C5            1 RES     
    4569 C5        -158.8275  -117.9855   143.7621 C5            1 RES     
    4570 C5        -159.8894  -118.3030   142.7093 C5            1 RES     
    4571 H6        -168.6493  -105.7412   151.8221 H6            1 RES     
    4572 H6        -168.9683  -104.4301   153.0046 H6            1 RES     
    4573 H6        -170.0186  -105.8962   152.9985 H6            1 RES     
    4574 H6        -167.0155  -105.8016   153.7479 H6            1 RES     
    4575 H6        -168.3987  -105.8922   154.8946 H6            1 RES     
    4576 H6        -167.4296  -108.1007   154.6423 H6            1 RES     
    4577 H6        -169.0911  -108.0975   153.9490 H6            1 RES     
    4578 H6        -166.4292  -107.8977   152.3866 H6            1 RES     
    4579 H6        -168.0636  -107.9189   151.6147 H6            1 RES     
    4580 H6        -166.9191  -110.1271   153.3975 H6            1 RES     
    4581 H6        -168.5080  -110.1914   152.5364 H6            1 RES     
    4582 H6        -167.2537  -110.0070   150.3138 H6            1 RES     
    4583 H6        -165.7148  -109.9591   151.2403 H6            1 RES     
    4584 H6        -167.6392  -112.3805   150.9963 H6            1 RES     
    4585 H6        -165.9761  -112.1624   150.3311 H6            1 RES     
    4586 H6        -166.8490  -112.3611   153.2706 H6            1 RES     
    4587 H6        -165.2336  -111.8072   152.7995 H6            1 RES     
    4588 H6        -165.2141  -114.0203   153.4578 H6            1 RES     
    4589 H6        -167.2001  -114.9933   151.4891 H6            1 RES     
    4590 H6        -165.9501  -116.0728   152.2251 H6            1 RES     
    4591 H6        -166.4511  -115.4256   154.4413 H6            1 RES     
    4592 H6        -167.7457  -114.2457   153.8655 H6            1 RES     
    4593 H6        -167.8653  -117.2890   154.1050 H6            1 RES     
    4594 H6        -169.2042  -116.2140   153.5104 H6            1 RES     
    4595 H6        -167.7317  -115.8497   156.2489 H6            1 RES     
    4596 H6        -169.0710  -114.8455   155.6081 H6            1 RES     
    4597 H6        -170.6229  -116.7948   155.7835 H6            1 RES     
    4598 H6        -169.9030  -116.2141   157.3287 H6            1 RES     
    4599 H6        -168.2373  -118.0317   157.3418 H6            1 RES     
    4600 H6        -168.9426  -118.7062   155.8123 H6            1 RES     
    4601 H6        -169.9275  -118.6472   157.3278 H6            1 RES     
    4602 H6        -163.6210  -112.9954   151.8262 H6            1 RES     
    4603 H6        -164.2533  -114.3321   150.8244 H6            1 RES     
    4604 H6        -162.3319  -115.2248   150.7579 H6            1 RES     
    4605 H6        -161.0374  -114.8117   151.8182 H6            1 RES     
    4606 H6        -162.6942  -117.4414   151.9606 H6            1 RES     
    4607 H6        -161.0667  -117.0535   153.7994 H6            1 RES     
    4608 H6        -160.8596  -118.5948   152.9184 H6            1 RES     
    4609 H6        -158.8761  -117.8109   151.7129 H6            1 RES     
    4610 H6        -159.1091  -116.1539   152.3005 H6            1 RES     
    4611 H6        -157.3431  -117.0622   153.6041 H6            1 RES     
    4612 H6        -158.7505  -116.9584   154.6790 H6            1 RES     
    4613 H6        -159.1755  -119.4138   154.4033 H6            1 RES     
    4614 H6        -157.5716  -119.0216   155.0989 H6            1 RES     
    4615 H6        -158.0932  -119.8850   152.1752 H6            1 RES     
    4616 H6        -157.3980  -120.8694   153.5019 H6            1 RES     
    4617 H6        -155.4459  -119.2914   153.6700 H6            1 RES     
    4618 H6        -155.6006  -120.0462   152.0382 H6            1 RES     
    4619 H6        -156.1045  -118.3459   152.2724 H6            1 RES     
    4620 H6        -162.2687  -117.4727   149.6791 H6            1 RES     
    4621 H6        -161.0445  -118.5650   150.3854 H6            1 RES     
    4622 H6        -159.3758  -116.5234   150.0830 H6            1 RES     
    4623 H6        -160.6881  -115.6924   149.2357 H6            1 RES     
    4624 H6        -159.0225  -116.7261   147.7709 H6            1 RES     
    4625 H6        -159.3194  -118.3579   148.4620 H6            1 RES     
    4626 H6        -161.4001  -116.6839   146.8817 H6            1 RES     
    4627 H6        -161.6413  -118.3339   147.5651 H6            1 RES     
    4628 H6        -159.8153  -119.2295   146.0895 H6            1 RES     
    4629 H6        -161.2108  -118.5243   145.1988 H6            1 RES     
    4630 H6        -158.5166  -117.0939   145.6755 H6            1 RES     
    4631 H6        -159.9251  -116.4110   144.7873 H6            1 RES     
    4632 H6        -158.1133  -117.2618   143.3104 H6            1 RES     
    4633 H6        -158.2654  -118.9109   144.0123 H6            1 RES     
    4634 H6        -160.5995  -119.0719   143.0738 H6            1 RES     
    4635 H6        -159.3936  -118.7018   141.7982 H6            1 RES     
    4636 H6        -160.4460  -117.3827   142.4322 H6            1 RES     
    4637 C0        -174.4231  -109.8946   157.1779 C0            1 RES     
    4638 C0        -174.8737  -108.8893   158.3134 C0            1 RES     
    4639 C0        -173.8308  -108.1351   158.7342 C0            1 RES     
    4640 S1        -174.2299  -107.0105   159.9143 S1            1 RES     
    4641 C0        -175.8677  -107.4624   159.9346 C0            1 RES     
    4642 C0        -176.0306  -108.5505   159.0652 C0            1 RES     
    4643 C0        -172.6432  -108.5697   158.0980 C0            1 RES     
    4644 C0        -172.9339  -109.5423   157.2641 C0            1 RES     
    4645 C0        -171.7397  -110.1539   156.7524 C0            1 RES     
    4646 C0        -170.6020  -109.5716   157.2811 C0            1 RES     
    4647 S1        -170.9253  -108.1826   158.3815 S1            1 RES     
    4648 H2        -176.9735  -109.0242   158.9724 H2            1 RES     
    4649 H2        -171.7352  -111.0234   156.1656 H2            1 RES     
    4650 N3        -179.3645  -106.3939   160.9705 N3            1 RES     
    4651 C0        -178.3365  -107.0696   160.3847 C0            1 RES     
    4652 C0        -176.9796  -106.7604   160.6686 C0            1 RES     
    4653 C0        -176.7581  -105.7242   161.6013 C0            1 RES     
    4654 N3        -175.5335  -105.2938   162.0019 N3            1 RES     
    4655 S1        -175.9068  -104.0951   163.0741 S1            1 RES     
    4656 N3        -177.5549  -104.0598   163.0750 N3            1 RES     
    4657 C0        -177.8644  -105.0454   162.1915 C0            1 RES     
    4658 C0        -179.1628  -105.3916   161.8606 C0            1 RES     
    4659 H4        -178.5970  -107.8252   159.6728 H4            1 RES     
    4660 C5        -178.7146   -99.9552   158.8097 C5            1 RES     
    4661 C5        -177.8071  -100.9876   159.4785 C5            1 RES     
    4662 C5        -178.1516  -102.4358   159.0915 C5            1 RES     
    4663 C5        -177.9015  -102.7475   157.6045 C5            1 RES     
    4664 C5        -178.2235  -104.2165   157.2908 C5            1 RES     
    4665 C5        -177.8361  -104.5803   155.8405 C5            1 RES     
    4666 C5        -178.0755  -106.0636   155.4519 C5            1 RES     
    4667 C5        -177.4478  -107.0023   156.4838 C5            1 RES     
    4668 C5        -177.2199  -108.4797   156.0761 C5            1 RES     
    4669 C5        -178.4638  -109.4339   155.9013 C5            1 RES     
    4670 C5        -179.0024  -109.7227   157.3300 C5            1 RES     
    4671 C5        -180.1628  -110.6393   157.7352 C5            1 RES     
    4672 C5        -180.2055  -110.5541   159.2966 C5            1 RES     
    4673 C5        -181.2691  -111.3675   160.0321 C5            1 RES     
    4674 C5        -181.0077  -112.8680   159.9935 C5            1 RES     
    4675 C5        -175.9671  -108.6580   155.2062 C5            1 RES     
    4676 C0        -175.0722  -109.8831   155.6603 C0            1 RES     
    4677 C5        -174.2121  -110.3758   154.4176 C5            1 RES     
    4678 C5        -174.3071  -111.8875   154.0095 C5            1 RES     
    4679 C5        -173.3205  -112.8206   154.7694 C5            1 RES     
    4680 C5        -171.8517  -112.7585   154.2873 C5            1 RES     
    4681 C5        -170.8652  -113.4704   155.2337 C5            1 RES     
    4682 C5        -170.9682  -115.0035   155.2604 C5            1 RES     
    4683 C5        -170.6352  -115.6944   153.9238 C5            1 RES     
    4684 C5        -169.2204  -115.3884   153.4222 C5            1 RES     
    4685 C5        -174.2787  -112.1175   152.4486 C5            1 RES     
    4686 C5        -173.2028  -111.3450   151.6365 C5            1 RES     
    4687 C5        -173.0730  -111.7859   150.1612 C5            1 RES     
    4688 C5        -174.3361  -111.5803   149.3015 C5            1 RES     
    4689 C5        -174.1309  -111.9821   147.8201 C5            1 RES     
    4690 C5        -173.1372  -111.0725   147.0645 C5            1 RES     
    4691 C5        -172.9170  -111.4716   145.5928 C5            1 RES     
    4692 C5        -174.1657  -111.3389   144.7211 C5            1 RES     
    4693 H6        -178.5945   -99.9675   157.7078 H6            1 RES     
    4694 H6        -178.4477   -98.9398   159.1712 H6            1 RES     
    4695 H6        -179.7761  -100.1553   159.0684 H6            1 RES     
    4696 H6        -176.7453  -100.7688   159.2309 H6            1 RES     
    4697 H6        -177.9309  -100.8855   160.5788 H6            1 RES     
    4698 H6        -177.5044  -103.1055   159.7012 H6            1 RES     
    4699 H6        -179.2105  -102.6467   159.3550 H6            1 RES     
    4700 H6        -176.8280  -102.5508   157.3849 H6            1 RES     
    4701 H6        -178.5249  -102.1015   156.9531 H6            1 RES     
    4702 H6        -177.6282  -104.8352   157.9957 H6            1 RES     
    4703 H6        -179.3035  -104.4139   157.4607 H6            1 RES     
    4704 H6        -178.3812  -103.9293   155.1237 H6            1 RES     
    4705 H6        -176.7481  -104.3731   155.7277 H6            1 RES     
    4706 H6        -179.1599  -106.2917   155.3699 H6            1 RES     
    4707 H6        -177.6055  -106.2165   154.4565 H6            1 RES     
    4708 H6        -178.0567  -106.9519   157.4056 H6            1 RES     
    4709 H6        -176.4480  -106.5936   156.7561 H6            1 RES     
    4710 H6        -176.8049  -108.8679   156.9340 H6            1 RES     
    4711 H6        -179.2214  -108.9821   155.2269 H6            1 RES     
    4712 H6        -178.1363  -110.4073   155.4740 H6            1 RES     
    4713 H6        -178.1544  -110.2277   157.8296 H6            1 RES     
    4714 H6        -179.2375  -108.7368   157.7653 H6            1 RES     
    4715 H6        -179.9679  -111.6805   157.3988 H6            1 RES     
    4716 H6        -181.1191  -110.2777   157.3036 H6            1 RES     
    4717 H6        -179.2148  -110.8380   159.7244 H6            1 RES     
    4718 H6        -180.3881  -109.4918   159.5706 H6            1 RES     
    4719 H6        -182.2774  -111.1242   159.6401 H6            1 RES     
    4720 H6        -181.2299  -111.0625   161.1035 H6            1 RES     
    4721 H6        -180.0079  -113.0940   160.4266 H6            1 RES     
    4722 H6        -181.0590  -113.2515   158.9562 H6            1 RES     
    4723 H6        -181.7737  -113.3827   160.6122 H6            1 RES     
    4724 H6        -175.2884  -107.7800   155.2705 H6            1 RES     
    4725 H6        -176.3327  -108.7085   154.1578 H6            1 RES     
    4726 H6        -174.6778  -109.8821   153.5437 H6            1 RES     
    4727 H6        -173.1828  -109.9660   154.3973 H6            1 RES     
    4728 H6        -175.3237  -112.2222   154.3167 H6            1 RES     
    4729 H6        -173.3976  -112.5734   155.8488 H6            1 RES     
    4730 H6        -173.6571  -113.8731   154.6495 H6            1 RES     
    4731 H6        -171.7523  -113.1851   153.2711 H6            1 RES     
    4732 H6        -171.5363  -111.7006   154.2172 H6            1 RES     
    4733 H6        -169.8326  -113.1874   154.9449 H6            1 RES     
    4734 H6        -171.0107  -113.0971   156.2681 H6            1 RES     
    4735 H6        -171.9866  -115.3032   155.5852 H6            1 RES     
    4736 H6        -170.2512  -115.3746   156.0252 H6            1 RES     
    4737 H6        -171.3711  -115.4137   153.1425 H6            1 RES     
    4738 H6        -170.7143  -116.7911   154.0824 H6            1 RES     
    4739 H6        -168.4671  -115.6651   154.1905 H6            1 RES     
    4740 H6        -169.0189  -115.9716   152.4999 H6            1 RES     
    4741 H6        -169.1075  -114.3144   153.1675 H6            1 RES     
    4742 H6        -175.2565  -111.7847   152.0382 H6            1 RES     
    4743 H6        -174.2035  -113.2105   152.2592 H6            1 RES     
    4744 H6        -172.2004  -111.4802   152.0641 H6            1 RES     
    4745 H6        -173.4152  -110.2552   151.6716 H6            1 RES     
    4746 H6        -172.2440  -111.1865   149.7353 H6            1 RES     
    4747 H6        -172.7774  -112.8578   150.1236 H6            1 RES     
    4748 H6        -174.6623  -110.5186   149.3464 H6            1 RES     
    4749 H6        -175.1469  -112.2152   149.7130 H6            1 RES     
    4750 H6        -173.7929  -113.0401   147.7637 H6            1 RES     
    4751 H6        -175.1214  -111.9104   147.3198 H6            1 RES     
    4752 H6        -172.1436  -111.1287   147.5516 H6            1 RES     
    4753 H6        -173.4890  -110.0186   147.1082 H6            1 RES     
    4754 H6        -172.1393  -110.7980   145.1693 H6            1 RES     
    4755 H6        -172.5350  -112.5137   145.5367 H6            1 RES     
    4756 H6        -174.9620  -112.0358   145.0509 H6            1 RES     
    4757 H6        -173.9067  -111.5904   143.6701 H6            1 RES     
    4758 H6        -174.5475  -110.2963   144.7492 H6            1 RES     
    4759 C0        -184.2666  -104.1971   163.1123 C0            1 RES     
    4760 C0        -184.3192  -103.4275   164.4936 C0            1 RES     
    4761 C0        -183.0888  -102.9894   164.8510 C0            1 RES     
    4762 S1        -183.0595  -102.1253   166.2895 S1            1 RES     
    4763 C0        -184.7347  -102.2751   166.5313 C0            1 RES     
    4764 C0        -185.2529  -103.0797   165.5064 C0            1 RES     
    4765 C0        -182.1287  -103.4615   163.9238 C0            1 RES     
    4766 C0        -182.7405  -104.1418   162.9811 C0            1 RES     
    4767 C0        -181.7936  -104.8137   162.1361 C0            1 RES     
    4768 C0        -180.4924  -104.5822   162.5440 C0            1 RES     
    4769 S1        -180.3453  -103.4598   163.9452 S1            1 RES     
    4770 H2        -186.2783  -103.3452   165.5018 H2            1 RES     
    4771 H2        -182.0617  -105.5058   161.3950 H2            1 RES     
    4772 N3        -187.7301  -100.8880   168.4143 N3            1 RES     
    4773 C0        -186.9683  -101.5745   167.5170 C0            1 RES     
    4774 C0        -185.5500  -101.5841   167.5922 C0            1 RES     
    4775 C0        -184.9769  -100.8544   168.6560 C0            1 RES     
    4776 N3        -183.6432  -100.7528   168.8933 N3            1 RES     
    4777 S1        -183.5891   -99.7968   170.2383 S1            1 RES     
    4778 N3        -185.1730   -99.4746   170.5626 N3            1 RES     
    4779 C0        -185.8130  -100.1523   169.5732 C0            1 RES     
    4780 C0        -187.1897  -100.1771   169.4341 C0            1 RES     
    4781 H4        -187.4865  -102.0817   166.7298 H4            1 RES     
    4782 C5        -186.0457   -94.3366   167.5255 C5            1 RES     
    4783 C5        -185.2912   -95.6407   167.7833 C5            1 RES     
    4784 C5        -185.9906   -96.8722   167.1831 C5            1 RES     
    4785 C5        -186.0352   -96.8606   165.6440 C5            1 RES     
    4786 C5        -186.7064   -98.1333   165.1057 C5            1 RES     
    4787 C5        -186.6243   -98.2042   163.5649 C5            1 RES     
    4788 C5        -187.2299   -99.4872   162.9359 C5            1 RES     
    4789 C5        -186.6719  -100.7391   163.6150 C5            1 RES     
    4790 C5        -186.8277  -102.0938   162.8792 C5            1 RES     
    4791 C5        -188.2587  -102.7461   162.7558 C5            1 RES     
    4792 C5        -188.6295  -103.2671   164.1721 C5            1 RES     
    4793 C5        -189.8861  -104.0359   164.5972 C5            1 RES     
    4794 C5        -189.6784  -104.3181   166.1219 C5            1 RES     
    4795 C5        -190.7708  -105.0836   166.8665 C5            1 RES     
    4796 C5        -190.8447  -106.5539   166.4739 C5            1 RES     
    4797 C5        -185.7845  -102.2768   161.7673 C5            1 RES     
    4798 C0        -185.1151  -103.7120   161.7823 C0            1 RES     
    4799 C5        -184.5734  -104.0381   160.3239 C5            1 RES     
    4800 C5        -185.0484  -105.3689   159.6426 C5            1 RES     
    4801 C5        -184.1829  -106.6137   159.9929 C5            1 RES     
    4802 C5        -182.8224  -106.6971   159.2608 C5            1 RES     
    4803 C5        -181.8821  -107.7749   159.8353 C5            1 RES     
    4804 C5        -182.3053  -109.2280   159.5687 C5            1 RES     
    4805 C5        -182.3288  -109.6289   158.0809 C5            1 RES     
    4806 C5        -180.9713  -109.4650   157.3901 C5            1 RES     
    4807 C5        -185.3007  -105.2229   158.0917 C5            1 RES     
    4808 C5        -184.2166  -104.4802   157.2628 C5            1 RES     
    4809 C5        -184.4034  -104.5738   155.7317 C5            1 RES     
    4810 C5        -185.7062  -103.9520   155.1906 C5            1 RES     
    4811 C5        -185.8127  -104.0199   153.6472 C5            1 RES     
    4812 C5        -184.7703  -103.1452   152.9162 C5            1 RES     
    4813 C5        -184.8603  -103.2156   151.3797 C5            1 RES     
    4814 C5        -186.1666  -102.6631   150.8095 C5            1 RES     
    4815 H6        -186.0951   -94.1076   166.4420 H6            1 RES     
    4816 H6        -185.5176   -93.4989   168.0280 H6            1 RES     
    4817 H6        -187.0753   -94.4033   167.9369 H6            1 RES     
    4818 H6        -184.2556   -95.5588   167.3864 H6            1 RES     
    4819 H6        -185.2265   -95.7830   168.8843 H6            1 RES     
    4820 H6        -185.4185   -97.7702   167.5080 H6            1 RES     
    4821 H6        -187.0192   -96.9509   167.5964 H6            1 RES     
    4822 H6        -184.9890   -96.8085   165.2673 H6            1 RES     
    4823 H6        -186.5954   -95.9794   165.2698 H6            1 RES     
    4824 H6        -186.1597   -98.9961   165.5423 H6            1 RES     
    4825 H6        -187.7665   -98.1731   165.4358 H6            1 RES     
    4826 H6        -187.1174   -97.3165   163.1138 H6            1 RES     
    4827 H6        -185.5460   -98.1700   163.2900 H6            1 RES     
    4828 H6        -188.3379   -99.4958   163.0188 H6            1 RES     
    4829 H6        -186.9557   -99.4791   161.8589 H6            1 RES     
    4830 H6        -187.1129  -100.8033   164.6272 H6            1 RES     
    4831 H6        -185.5789  -100.5884   163.7679 H6            1 RES     
    4832 H6        -186.3832  -102.7411   163.5442 H6            1 RES     
    4833 H6        -188.9933  -102.0216   162.3457 H6            1 RES     
    4834 H6        -188.2135  -103.6320   162.0846 H6            1 RES     
    4835 H6        -187.8447  -104.0168   164.3862 H6            1 RES     
    4836 H6        -188.5815  -102.3874   164.8358 H6            1 RES     
    4837 H6        -189.9701  -104.9851   164.0249 H6            1 RES     
    4838 H6        -190.7960  -103.4205   164.4400 H6            1 RES     
    4839 H6        -188.7193  -104.8644   166.2847 H6            1 RES     
    4840 H6        -189.5873  -103.3361   166.6361 H6            1 RES     
    4841 H6        -191.7504  -104.5815   166.7331 H6            1 RES     
    4842 H6        -190.5095  -105.0536   167.9497 H6            1 RES     
    4843 H6        -189.8635  -107.0478   166.6518 H6            1 RES     
    4844 H6        -191.1294  -106.6650   165.4098 H6            1 RES     
    4845 H6        -191.6030  -107.0586   167.1101 H6            1 RES     
    4846 H6        -184.9320  -101.5721   161.8775 H6            1 RES     
    4847 H6        -186.3032  -102.0121   160.8207 H6            1 RES     
    4848 H6        -185.0466  -103.2772   159.6746 H6            1 RES     
    4849 H6        -183.4949  -103.8219   160.1903 H6            1 RES     
    4850 H6        -186.0563  -105.5837   160.0644 H6            1 RES     
    4851 H6        -184.0451  -106.6205   161.0943 H6            1 RES     
    4852 H6        -184.7506  -107.5319   159.7282 H6            1 RES     
    4853 H6        -182.9677  -106.8806   158.1793 H6            1 RES     
    4854 H6        -182.3021  -105.7248   159.3483 H6            1 RES     
    4855 H6        -180.8671  -107.6166   159.4175 H6            1 RES     
    4856 H6        -181.7901  -107.6384   160.9323 H6            1 RES     
    4857 H6        -183.3048  -109.4131   160.0149 H6            1 RES     
    4858 H6        -181.5792  -109.8897   160.0898 H6            1 RES     
    4859 H6        -183.0949  -109.0462   157.5291 H6            1 RES     
    4860 H6        -182.6161  -110.7006   158.0252 H6            1 RES     
    4861 H6        -180.1895  -110.0439   157.9269 H6            1 RES     
    4862 H6        -181.0375  -109.8385   156.3472 H6            1 RES     
    4863 H6        -180.6704  -108.3982   157.3425 H6            1 RES     
    4864 H6        -186.2344  -104.6361   157.9531 H6            1 RES     
    4865 H6        -185.4896  -106.2353   157.6729 H6            1 RES     
    4866 H6        -183.2144  -104.8865   157.4535 H6            1 RES     
    4867 H6        -184.1836  -103.4101   157.5591 H6            1 RES     
    4868 H6        -183.5377  -104.0450   155.2858 H6            1 RES     
    4869 H6        -184.3525  -105.6407   155.4208 H6            1 RES     
    4870 H6        -185.7877  -102.8910   155.5124 H6            1 RES     
    4871 H6        -186.5640  -104.5143   155.6120 H6            1 RES     
    4872 H6        -185.7207  -105.0765   153.3128 H6            1 RES     
    4873 H6        -186.8278  -103.6590   153.3716 H6            1 RES     
    4874 H6        -183.7509  -103.4887   153.1818 H6            1 RES     
    4875 H6        -184.8784  -102.0871   153.2401 H6            1 RES     
    4876 H6        -184.0280  -102.6075   150.9611 H6            1 RES     
    4877 H6        -184.7224  -104.2648   151.0405 H6            1 RES     
    4878 H6        -187.0357  -103.2678   151.1371 H6            1 RES     
    4879 H6        -186.1255  -102.6990   149.6996 H6            1 RES     
    4880 H6        -186.3083  -101.6067   151.1219 H6            1 RES     
    4881 C0        -191.6781   -98.4395   171.8584 C0            1 RES     
    4882 C0        -191.3604   -98.0230   173.3512 C0            1 RES     
    4883 C0        -190.0258   -97.9048   173.5474 C0            1 RES     
    4884 S1        -189.6004   -97.4260   175.0987 S1            1 RES     
    4885 C0        -191.2144   -97.3333   175.6219 C0            1 RES     
    4886 C0        -192.0382   -97.7678   174.5735 C0            1 RES     
    4887 C0        -189.3366   -98.3037   172.3769 C0            1 RES     
    4888 C0        -190.2120   -98.6226   171.4508 C0            1 RES     
    4889 C0        -189.5659   -99.2297   170.3211 C0            1 RES     
    4890 C0        -188.1997   -99.3332   170.5101 C0            1 RES     
    4891 S1        -187.6108   -98.6195   172.0556 S1            1 RES     
    4892 H2        -193.0858   -97.8408   174.7119 H2            1 RES     
    4893 H2        -190.0822   -99.6680   169.5201 H2            1 RES     
    4894 N3        -193.5324   -95.9307   178.2868 N3            1 RES     
    4895 C0        -193.0760   -96.5069   177.1394 C0            1 RES     
    4896 C0        -191.6973   -96.7823   176.9375 C0            1 RES     
    4897 C0        -190.8309   -96.4381   177.9974 C0            1 RES     
    4898 N3        -189.4862   -96.6309   177.9900 N3            1 RES     
    4899 S1        -189.0310   -96.0465   179.4655 S1            1 RES     
    4900 N3        -190.4438   -95.5384   180.1463 N3            1 RES     
    4901 C0        -191.3527   -95.8388   179.1813 C0            1 RES     
    4902 C0        -192.7080   -95.5884   179.3069 C0            1 RES     
    4903 H4        -193.8011   -96.7138   176.3798 H4            1 RES     
    4904 C5        -190.6371   -89.7549   178.4437 C5            1 RES     
    4905 C5        -190.1491   -91.1944   178.2810 C5            1 RES     
    4906 C5        -191.1763   -92.1060   177.5883 C5            1 RES     
    4907 C5        -191.4442   -91.7214   176.1216 C5            1 RES     
    4908 C5        -192.4439   -92.6920   175.4745 C5            1 RES     
    4909 C5        -192.6073   -92.4081   173.9650 C5            1 RES     
    4910 C5        -193.5592   -93.3785   173.2162 C5            1 RES     
    4911 C5        -193.1876   -94.8337   173.5063 C5            1 RES     
    4912 C5        -193.7363   -95.9259   172.5540 C5            1 RES     
    4913 C5        -195.2757   -96.2693   172.5775 C5            1 RES     
    4914 C5        -195.5360   -97.0386   173.9023 C5            1 RES     
    4915 C5        -196.8509   -97.6542   174.3951 C5            1 RES     
    4916 C5        -196.4855   -98.3223   175.7616 C5            1 RES     
    4917 C5        -197.5939   -99.0394   176.5303 C5            1 RES     
    4918 C5        -198.0375  -100.3380   175.8683 C5            1 RES     
    4919 C5        -192.9322   -96.0194   171.2492 C5            1 RES     
    4920 C0        -192.5903   -97.5114   170.8429 C0            1 RES     
    4921 C5        -192.3522   -97.5714   169.2724 C5            1 RES     
    4922 C5        -193.1960   -98.5979   168.4387 C5            1 RES     
    4923 C5        -192.5744  -100.0220   168.3555 C5            1 RES     
    4924 C5        -191.3866  -100.1660   167.3747 C5            1 RES     
    4925 C5        -190.6241  -101.4969   167.5264 C5            1 RES     
    4926 C5        -191.3826  -102.7479   167.0559 C5            1 RES     
    4927 C5        -191.7107  -102.7734   165.5504 C5            1 RES     
    4928 C5        -190.4669  -102.6905   164.6600 C5            1 RES     
    4929 C5        -193.6375   -98.0458   167.0278 C5            1 RES     
    4930 C5        -192.5543   -97.3291   166.1752 C5            1 RES     
    4931 C5        -192.9808   -97.0221   164.7220 C5            1 RES     
    4932 C5        -194.1859   -96.0713   164.5790 C5            1 RES     
    4933 C5        -194.5312   -95.7509   163.1038 C5            1 RES     
    4934 C5        -193.4457   -94.9241   162.3800 C5            1 RES     
    4935 C5        -193.7746   -94.6106   160.9078 C5            1 RES     
    4936 C5        -195.0022   -93.7185   160.7235 C5            1 RES     
    4937 H6        -190.7959   -89.2700   177.4596 H6            1 RES     
    4938 H6        -189.8739   -89.1664   178.9953 H6            1 RES     
    4939 H6        -191.5849   -89.7361   179.0226 H6            1 RES     
    4940 H6        -189.1902   -91.2031   177.7179 H6            1 RES     
    4941 H6        -189.9544   -91.6031   179.2966 H6            1 RES     
    4942 H6        -190.7678   -93.1413   177.6077 H6            1 RES     
    4943 H6        -192.1254   -92.0992   178.1665 H6            1 RES     
    4944 H6        -190.4785   -91.7653   175.5697 H6            1 RES     
    4945 H6        -191.8521   -90.6925   176.0491 H6            1 RES     
    4946 H6        -192.0359   -93.7158   175.6131 H6            1 RES     
    4947 H6        -193.4273   -92.6228   175.9868 H6            1 RES     
    4948 H6        -192.9604   -91.3664   173.8073 H6            1 RES     
    4949 H6        -191.5993   -92.4989   173.5012 H6            1 RES     
    4950 H6        -194.6187   -93.2124   173.5066 H6            1 RES     
    4951 H6        -193.4518   -93.1630   172.1312 H6            1 RES     
    4952 H6        -193.4777   -95.0582   174.5497 H6            1 RES     
    4953 H6        -192.0773   -94.9174   173.4740 H6            1 RES     
    4954 H6        -193.3471   -96.7803   172.9755 H6            1 RES     
    4955 H6        -195.8909   -95.3511   172.4721 H6            1 RES     
    4956 H6        -195.5206   -96.9643   171.7441 H6            1 RES     
    4957 H6        -194.9067   -97.9432   173.8047 H6            1 RES     
    4958 H6        -195.2036   -96.3642   174.7093 H6            1 RES     
    4959 H6        -197.2194   -98.4104   173.6686 H6            1 RES     
    4960 H6        -197.6213   -96.8695   174.5440 H6            1 RES     
    4961 H6        -195.6519   -99.0509   175.6227 H6            1 RES     
    4962 H6        -196.1117   -97.5222   176.4377 H6            1 RES     
    4963 H6        -198.4523   -98.3564   176.6924 H6            1 RES     
    4964 H6        -197.1752   -99.3138   177.5263 H6            1 RES     
    4965 H6        -197.1693  -101.0239   175.7504 H6            1 RES     
    4966 H6        -198.4933  -100.1414   174.8787 H6            1 RES     
    4967 H6        -198.7836  -100.8385   176.5219 H6            1 RES     
    4968 H6        -191.9421   -95.5215   171.3348 H6            1 RES     
    4969 H6        -193.5163   -95.4507   170.4937 H6            1 RES     
    4970 H6        -192.7425   -96.6073   168.8948 H6            1 RES     
    4971 H6        -191.2843   -97.5220   168.9812 H6            1 RES     
    4972 H6        -194.1528   -98.7268   168.9933 H6            1 RES     
    4973 H6        -192.2801  -100.3143   169.3852 H6            1 RES     
    4974 H6        -193.3579  -100.7370   168.0234 H6            1 RES     
    4975 H6        -191.7258  -100.0590   166.3268 H6            1 RES     
    4976 H6        -190.6635   -99.3490   167.5567 H6            1 RES     
    4977 H6        -189.6718  -101.4242   166.9627 H6            1 RES     
    4978 H6        -190.3440  -101.6432   168.5897 H6            1 RES     
    4979 H6        -192.3214  -102.8558   167.6384 H6            1 RES     
    4980 H6        -190.7459  -103.6311   167.2822 H6            1 RES     
    4981 H6        -192.4075  -101.9515   165.2863 H6            1 RES     
    4982 H6        -192.2254  -103.7338   165.3339 H6            1 RES     
    4983 H6        -189.7563  -103.5080   164.9076 H6            1 RES     
    4984 H6        -190.7646  -102.7880   163.5955 H6            1 RES     
    4985 H6        -189.9553  -101.7125   164.7737 H6            1 RES     
    4986 H6        -194.4342   -97.2888   167.1933 H6            1 RES     
    4987 H6        -194.0981   -98.8806   166.4560 H6            1 RES     
    4988 H6        -191.6451   -97.9381   166.0832 H6            1 RES     
    4989 H6        -192.2500   -96.3829   166.6711 H6            1 RES     
    4990 H6        -192.0977   -96.5626   164.2353 H6            1 RES     
    4991 H6        -193.2056   -97.9766   164.1965 H6            1 RES     
    4992 H6        -193.9904   -95.1198   165.1195 H6            1 RES     
    4993 H6        -195.0722   -96.5586   165.0337 H6            1 RES     
    4994 H6        -194.7176   -96.6972   162.5501 H6            1 RES     
    4995 H6        -195.4751   -95.1629   163.1074 H6            1 RES     
    4996 H6        -192.4955   -95.4939   162.3695 H6            1 RES     
    4997 H6        -193.2761   -93.9711   162.9271 H6            1 RES     
    4998 H6        -192.9027   -94.0759   160.4700 H6            1 RES     
    4999 H6        -193.9157   -95.5567   160.3422 H6            1 RES     
    5000 H6        -195.9223   -94.2219   161.0817 H6            1 RES     
    5001 H6        -195.1341   -93.4964   159.6426 H6            1 RES     
    5002 H6        -194.8671   -92.7586   161.2656 H6            1 RES     
    5003 C0        -196.3129   -93.7181   182.8493 C0            1 RES     
    5004 C0        -195.6967   -93.7304   184.3064 C0            1 RES     
    5005 C0        -194.3536   -93.8978   184.2627 C0            1 RES     
    5006 S1        -193.6114   -93.8833   185.7679 S1            1 RES     
    5007 C0        -195.0729   -93.6364   186.5987 C0            1 RES     
    5008 C0        -196.1161   -93.6583   185.6619 C0            1 RES     
    5009 C0        -193.9462   -94.1216   182.9255 C0            1 RES     
    5010 C0        -194.9965   -94.0530   182.1394 C0            1 RES     
    5011 C0        -194.6692   -94.4778   180.8073 C0            1 RES     
    5012 C0        -193.3441   -94.8608   180.7055 C0            1 RES     
    5013 S1        -192.3946   -94.6491   182.2216 S1            1 RES     
    5014 H2        -197.1229   -93.5774   185.9809 H2            1 RES     
    5015 H2        -195.3797   -94.6159   180.0481 H2            1 RES     
    5016 N3        -196.6180   -92.5234   189.8875 N3            1 RES     
    5017 C0        -196.4698   -92.8813   188.5811 C0            1 RES     
    5018 C0        -195.2272   -93.3379   188.0666 C0            1 RES     
    5019 C0        -194.1604   -93.4125   188.9881 C0            1 RES     
    5020 N3        -192.9042   -93.8305   188.6836 N3            1 RES     
    5021 S1        -192.1218   -93.7023   190.1318 S1            1 RES     
    5022 N3        -193.2769   -93.1311   191.1600 N3            1 RES     
    5023 C0        -194.3614   -93.0298   190.3467 C0            1 RES     
    5024 C0        -195.5980   -92.5830   190.7784 C0            1 RES     
    5025 H4        -197.3264   -92.7716   187.9489 H4            1 RES     
    5026 C5        -192.4791   -87.1669   190.7396 C5            1 RES     
    5027 C5        -192.3395   -88.5891   190.1967 C5            1 RES     
    5028 C5        -193.6286   -89.1157   189.5433 C5            1 RES     
    5029 C5        -194.0217   -88.3529   188.2648 C5            1 RES     
    5030 C5        -195.2901   -88.9515   187.6378 C5            1 RES     
    5031 C5        -195.6102   -88.2931   186.2778 C5            1 RES     
    5032 C5        -196.8474   -88.8757   185.5439 C5            1 RES     
    5033 C5        -196.7566   -90.4001   185.4550 C5            1 RES     
    5034 C5        -197.6606   -91.1213   184.4237 C5            1 RES     
    5035 C5        -199.2171   -91.1854   184.6717 C5            1 RES     
    5036 C5        -199.4371   -92.1896   185.8370 C5            1 RES     
    5037 C5        -200.7657   -92.6646   186.4372 C5            1 RES     
    5038 C5        -200.3537   -93.6915   187.5430 C5            1 RES     
    5039 C5        -201.4638   -94.3652   188.3478 C5            1 RES     
    5040 C5        -202.2675   -95.3710   187.5330 C5            1 RES     
    5041 C5        -197.0968   -91.0414   182.9976 C5            1 RES     
    5042 C0        -197.1454   -92.4304   182.2383 C0            1 RES     
    5043 C5        -197.1604   -92.1563   180.6726 C5            1 RES     
    5044 C5        -198.3176   -92.7913   179.8251 C5            1 RES     
    5045 C5        -198.0341   -94.2411   179.3362 C5            1 RES     
    5046 C5        -197.0627   -94.3537   178.1372 C5            1 RES     
    5047 C5        -196.5883   -95.7949   177.8657 C5            1 RES     
    5048 C5        -197.6576   -96.7455   177.3049 C5            1 RES     
    5049 C5        -198.2023   -96.3548   175.9174 C5            1 RES     
    5050 C5        -197.1149   -96.2819   174.8407 C5            1 RES     
    5051 C5        -198.8344   -91.8513   178.6677 C5            1 RES     
    5052 C5        -197.7612   -91.1537   177.7871 C5            1 RES     
    5053 C5        -198.3221   -90.4405   176.5363 C5            1 RES     
    5054 C5        -199.3038   -89.2870   176.8237 C5            1 RES     
    5055 C5        -199.7866   -88.5700   175.5389 C5            1 RES     
    5056 C5        -198.6686   -87.7982   174.8040 C5            1 RES     
    5057 C5        -199.1366   -87.0913   173.5175 C5            1 RES     
    5058 C5        -200.1586   -85.9802   173.7576 C5            1 RES     
    5059 H6        -192.6742   -86.4421   189.9239 H6            1 RES     
    5060 H6        -191.5349   -86.8693   191.2425 H6            1 RES     
    5061 H6        -193.3048   -87.1205   191.4811 H6            1 RES     
    5062 H6        -191.4986   -88.6316   189.4704 H6            1 RES     
    5063 H6        -192.0888   -89.2550   191.0513 H6            1 RES     
    5064 H6        -193.4525   -90.1810   189.2728 H6            1 RES     
    5065 H6        -194.4583   -89.0803   190.2819 H6            1 RES     
    5066 H6        -193.1801   -88.4328   187.5407 H6            1 RES     
    5067 H6        -194.2065   -87.2812   188.4829 H6            1 RES     
    5068 H6        -195.0944   -90.0341   187.4842 H6            1 RES     
    5069 H6        -196.1493   -88.8349   188.3324 H6            1 RES     
    5070 H6        -195.7519   -87.1985   186.4061 H6            1 RES     
    5071 H6        -194.7247   -88.4461   185.6205 H6            1 RES     
    5072 H6        -197.7921   -88.6004   186.0599 H6            1 RES     
    5073 H6        -196.8579   -88.4308   184.5255 H6            1 RES     
    5074 H6        -196.9307   -90.8116   186.4667 H6            1 RES     
    5075 H6        -195.7071   -90.6668   185.1939 H6            1 RES     
    5076 H6        -197.4051   -92.1059   184.5798 H6            1 RES     
    5077 H6        -199.6304   -90.1753   184.8755 H6            1 RES     
    5078 H6        -199.7251   -91.6086   183.7771 H6            1 RES     
    5079 H6        -199.0372   -93.1409   185.4385 H6            1 RES     
    5080 H6        -198.8528   -91.7951   186.6854 H6            1 RES     
    5081 H6        -201.3904   -93.1500   185.6565 H6            1 RES     
    5082 H6        -201.3199   -91.8153   186.8876 H6            1 RES     
    5083 H6        -199.7250   -94.5006   187.1014 H6            1 RES     
    5084 H6        -199.7219   -93.1531   188.2833 H6            1 RES     
    5085 H6        -202.1228   -93.6008   188.8072 H6            1 RES     
    5086 H6        -200.9710   -94.9373   189.1678 H6            1 RES     
    5087 H6        -201.5930   -96.1504   187.1136 H6            1 RES     
    5088 H6        -202.8118   -94.8683   186.7104 H6            1 RES     
    5089 H6        -202.9984   -95.8738   188.2019 H6            1 RES     
    5090 H6        -196.0216   -90.7594   182.9912 H6            1 RES     
    5091 H6        -197.6509   -90.2164   182.5002 H6            1 RES     
    5092 H6        -197.3870   -91.0771   180.5812 H6            1 RES     
    5093 H6        -196.1615   -92.2270   180.1982 H6            1 RES     
    5094 H6        -199.1873   -92.8787   180.5150 H6            1 RES     
    5095 H6        -197.6602   -94.8164   180.2088 H6            1 RES     
    5096 H6        -198.9925   -94.7082   179.0222 H6            1 RES     
    5097 H6        -197.5222   -93.9431   177.2181 H6            1 RES     
    5098 H6        -196.1629   -93.7429   178.3396 H6            1 RES     
    5099 H6        -195.7365   -95.7582   177.1566 H6            1 RES     
    5100 H6        -196.1921   -96.2363   178.8031 H6            1 RES     
    5101 H6        -198.5013   -96.8226   178.0224 H6            1 RES     
    5102 H6        -197.1981   -97.7546   177.2202 H6            1 RES     
    5103 H6        -198.7385   -95.3847   175.9647 H6            1 RES     
    5104 H6        -198.9365   -97.1309   175.6127 H6            1 RES     
    5105 H6        -196.5669   -97.2462   174.7756 H6            1 RES     
    5106 H6        -197.5805   -96.0700   173.8559 H6            1 RES     
    5107 H6        -196.3951   -95.4640   175.0507 H6            1 RES     
    5108 H6        -199.4175   -91.0278   179.1336 H6            1 RES     
    5109 H6        -199.5420   -92.4324   178.0371 H6            1 RES     
    5110 H6        -197.0270   -91.8729   177.4004 H6            1 RES     
    5111 H6        -197.1919   -90.4207   178.3974 H6            1 RES     
    5112 H6        -197.4430   -90.0404   175.9931 H6            1 RES     
    5113 H6        -198.8207   -91.1883   175.8807 H6            1 RES     
    5114 H6        -198.8318   -88.5406   177.4988 H6            1 RES     
    5115 H6        -200.1966   -89.7054   177.3312 H6            1 RES     
    5116 H6        -200.2506   -89.3099   174.8504 H6            1 RES     
    5117 H6        -200.5719   -87.8438   175.8431 H6            1 RES     
    5118 H6        -197.8743   -88.5064   174.4956 H6            1 RES     
    5119 H6        -198.2203   -87.0473   175.4907 H6            1 RES     
    5120 H6        -198.2451   -86.6291   173.0386 H6            1 RES     
    5121 H6        -199.5586   -87.8361   172.8089 H6            1 RES     
    5122 H6        -201.1019   -86.3852   174.1756 H6            1 RES     
    5123 H6        -200.3982   -85.4881   172.7905 H6            1 RES     
    5124 H6        -199.7431   -85.2155   174.4476 H6            1 RES     
    5125 C0        -198.1563   -91.0063   195.2518 C0            1 RES     
    5126 C0        -197.3486   -91.4721   196.5299 C0            1 RES     
    5127 C0        -196.0939   -91.8568   196.1962 C0            1 RES     
    5128 S1        -195.1518   -92.3306   197.5018 S1            1 RES     
    5129 C0        -196.3876   -92.0360   198.6302 C0            1 RES     
    5130 C0        -197.5380   -91.6517   197.9265 C0            1 RES     
    5131 C0        -195.9458   -91.8243   194.7887 C0            1 RES     
    5132 C0        -197.0615   -91.3882   194.2495 C0            1 RES     
    5133 C0        -197.0329   -91.5349   192.8212 C0            1 RES     
    5134 C0        -195.8503   -92.1087   192.3913 C0            1 RES     
    5135 S1        -194.6642   -92.4329   193.7078 S1            1 RES     
    5136 H2        -198.4459   -91.4740   198.4424 H2            1 RES     
    5137 H2        -197.8607   -91.3621   192.2006 H2            1 RES     
    5138 N3        -197.1561   -91.4833   202.3108 N3            1 RES     
    5139 C0        -197.2824   -91.5409   200.9552 C0            1 RES     
    5140 C0        -196.2560   -92.0725   200.1299 C0            1 RES     
    5141 C0        -195.1056   -92.5495   200.7946 C0            1 RES     
    5142 N3        -194.0269   -93.0965   200.1762 N3            1 RES     
    5143 S1        -193.0300   -93.4551   201.4426 S1            1 RES     
    5144 N3        -193.8716   -92.9513   202.7676 N3            1 RES     
    5145 C0        -195.0173   -92.4714   202.2156 C0            1 RES     
    5146 C0        -196.0523   -91.9305   202.9582 C0            1 RES     
    5147 H4        -198.1795   -91.1359   200.5349 H4            1 RES     
    5148 C5        -191.8887   -87.2926   203.4248 C5            1 RES     
    5149 C5        -192.1380   -88.5469   202.5874 C5            1 RES     
    5150 C5        -193.5919   -88.6691   202.1002 C5            1 RES     
    5151 C5        -193.9974   -87.5677   201.1035 C5            1 RES     
    5152 C5        -195.4427   -87.7686   200.6230 C5            1 RES     
    5153 C5        -195.8120   -86.7604   199.5127 C5            1 RES     
    5154 C5        -197.2396   -86.9261   198.9270 C5            1 RES     
    5155 C5        -197.4909   -88.3773   198.5139 C5            1 RES     
    5156 C5        -198.6702   -88.6632   197.5505 C5            1 RES     
    5157 C5        -200.1504   -88.5108   198.0742 C5            1 RES     
    5158 C5        -200.4053   -89.7086   199.0308 C5            1 RES     
    5159 C5        -201.7011   -90.0723   199.7653 C5            1 RES     
    5160 C5        -201.3594   -91.3883   200.5389 C5            1 RES     
    5161 C5        -202.4565   -92.0288   201.3875 C5            1 RES     
    5162 C5        -203.5679   -92.6555   200.5547 C5            1 RES     
    5163 C5        -198.3194   -88.3468   196.0894 C5            1 RES     
    5164 C0        -198.7753   -89.4850   195.0870 C0            1 RES     
    5165 C5        -198.9624   -88.8486   193.6425 C5            1 RES     
    5166 C5        -200.3408   -89.0513   192.9217 C5            1 RES     
    5167 C5        -200.4490   -90.3701   192.1027 C5            1 RES     
    5168 C5        -199.7121   -90.3629   190.7423 C5            1 RES     
    5169 C5        -199.6021   -91.7585   190.0973 C5            1 RES     
    5170 C5        -200.9207   -92.3463   189.5706 C5            1 RES     
    5171 C5        -201.5682   -91.5480   188.4225 C5            1 RES     
    5172 C5        -200.6615   -91.4130   187.1950 C5            1 RES     
    5173 C5        -200.8099   -87.7878   192.1009 C5            1 RES     
    5174 C5        -199.7545   -87.1000   191.1915 C5            1 RES     
    5175 C5        -200.3285   -86.0232   190.2434 C5            1 RES     
    5176 C5        -200.9875   -84.8175   190.9425 C5            1 RES     
    5177 C5        -201.4904   -83.7427   189.9476 C5            1 RES     
    5178 C5        -200.3543   -83.0264   189.1846 C5            1 RES     
    5179 C5        -200.8452   -81.9634   188.1831 C5            1 RES     
    5180 C5        -201.5593   -80.7799   188.8359 C5            1 RES     
    5181 H6        -192.0427   -86.3721   202.8266 H6            1 RES     
    5182 H6        -190.8391   -87.2930   203.7870 H6            1 RES     
    5183 H6        -192.5667   -87.2798   204.3046 H6            1 RES     
    5184 H6        -191.4423   -88.5622   201.7200 H6            1 RES     
    5185 H6        -191.9120   -89.4300   203.2242 H6            1 RES     
    5186 H6        -193.6895   -89.6535   201.5899 H6            1 RES     
    5187 H6        -194.2765   -88.6655   202.9757 H6            1 RES     
    5188 H6        -193.3086   -87.6195   200.2305 H6            1 RES     
    5189 H6        -193.9145   -86.5632   201.5665 H6            1 RES     
    5190 H6        -195.5078   -88.8008   200.2177 H6            1 RES     
    5191 H6        -196.1449   -87.6718   201.4785 H6            1 RES     
    5192 H6        -195.6959   -85.7202   199.8859 H6            1 RES     
    5193 H6        -195.0867   -86.9055   198.6806 H6            1 RES     
    5194 H6        -198.0169   -86.6202   199.6597 H6            1 RES     
    5195 H6        -197.3051   -86.2572   198.0418 H6            1 RES     
    5196 H6        -197.5975   -88.9804   199.4349 H6            1 RES     
    5197 H6        -196.5729   -88.7539   198.0076 H6            1 RES     
    5198 H6        -198.6109   -89.6857   197.4509 H6            1 RES     
    5199 H6        -200.3036   -87.5217   198.5548 H6            1 RES     
    5200 H6        -200.8635   -88.6136   197.2267 H6            1 RES     
    5201 H6        -200.2813   -90.5929   198.3778 H6            1 RES     
    5202 H6        -199.6315   -89.6355   199.8135 H6            1 RES     
    5203 H6        -202.5234   -90.2412   199.0369 H6            1 RES     
    5204 H6        -201.9883   -89.2708   200.4770 H6            1 RES     
    5205 H6        -200.9905   -92.1666   199.8296 H6            1 RES     
    5206 H6        -200.5249   -91.1604   201.2380 H6            1 RES     
    5207 H6        -202.8617   -91.2922   202.1105 H6            1 RES     
    5208 H6        -201.9818   -92.8565   201.9637 H6            1 RES     
    5209 H6        -203.1451   -93.4187   199.8640 H6            1 RES     
    5210 H6        -204.1076   -91.8845   199.9717 H6            1 RES     
    5211 H6        -204.2823   -93.1669   201.2348 H6            1 RES     
    5212 H6        -197.2218   -88.2641   195.9343 H6            1 RES     
    5213 H6        -198.7516   -87.3433   195.8861 H6            1 RES     
    5214 H6        -198.9642   -87.7561   193.8178 H6            1 RES     
    5215 H6        -198.0830   -88.9783   192.9809 H6            1 RES     
    5216 H6        -201.0974   -89.1464   193.7331 H6            1 RES     
    5217 H6        -200.0821   -91.1925   192.7516 H6            1 RES     
    5218 H6        -201.5208   -90.5739   191.8901 H6            1 RES     
    5219 H6        -200.2039   -89.6719   190.0316 H6            1 RES     
    5220 H6        -198.6828   -89.9849   190.8882 H6            1 RES     
    5221 H6        -198.8765   -91.7042   189.2605 H6            1 RES     
    5222 H6        -199.1754   -92.4723   190.8314 H6            1 RES     
    5223 H6        -201.6459   -92.4427   190.4056 H6            1 RES     
    5224 H6        -200.7052   -93.3708   189.1957 H6            1 RES     
    5225 H6        -201.8717   -90.5385   188.7683 H6            1 RES     
    5226 H6        -202.4880   -92.0886   188.1129 H6            1 RES     
    5227 H6        -200.3480   -92.4149   186.8311 H6            1 RES     
    5228 H6        -201.2113   -90.8951   186.3820 H6            1 RES     
    5229 H6        -199.7607   -90.8075   187.4249 H6            1 RES     
    5230 H6        -201.1282   -87.0095   192.8277 H6            1 RES     
    5231 H6        -201.7106   -88.0693   191.5130 H6            1 RES     
    5232 H6        -199.2563   -87.8239   190.5330 H6            1 RES     
    5233 H6        -198.9580   -86.6443   191.8174 H6            1 RES     
    5234 H6        -199.4743   -85.6658   189.6346 H6            1 RES     
    5235 H6        -201.0667   -86.4946   189.5575 H6            1 RES     
    5236 H6        -200.2725   -84.3473   191.6520 H6            1 RES     
    5237 H6        -201.8642   -85.1814   191.5159 H6            1 RES     
    5238 H6        -202.1982   -84.2048   189.2250 H6            1 RES     
    5239 H6        -202.0485   -82.9835   190.5382 H6            1 RES     
    5240 H6        -199.7842   -83.7689   188.5919 H6            1 RES     
    5241 H6        -199.6595   -82.5505   189.9107 H6            1 RES     
    5242 H6        -199.9563   -81.5641   187.6464 H6            1 RES     
    5243 H6        -201.5166   -82.4329   187.4322 H6            1 RES     
    5244 H6        -202.4949   -81.1009   189.3358 H6            1 RES     
    5245 H6        -201.8283   -80.0380   188.0535 H6            1 RES     
    5246 H6        -200.8926   -80.2859   189.5742 H6            1 RES     
    5247 C0        -197.5250   -91.0387   208.0649 C0            1 RES     
    5248 C0        -196.6558   -91.9288   209.0422 C0            1 RES     
    5249 C0        -195.5757   -92.4368   208.4027 C0            1 RES     
    5250 S1        -194.5743   -93.3646   209.3790 S1            1 RES     
    5251 C0        -195.5381   -93.1348   210.7594 C0            1 RES     
    5252 C0        -196.6709   -92.3990   210.3828 C0            1 RES     
    5253 C0        -195.6337   -92.0974   207.0295 C0            1 RES     
    5254 C0        -196.6975   -91.3572   206.8147 C0            1 RES     
    5255 C0        -196.9122   -91.1631   205.4082 C0            1 RES     
    5256 C0        -195.9563   -91.8163   204.6517 C0            1 RES     
    5257 S1        -194.6857   -92.6464   205.6220 S1            1 RES     
    5258 H2        -197.4333   -92.1928   211.0885 H2            1 RES     
    5259 H2        -197.7663   -90.7056   205.0063 H2            1 RES     
    5260 N3        -195.6185   -93.3465   214.5530 N3            1 RES     
    5261 C0        -195.9530   -93.0574   213.2641 C0            1 RES     
    5262 C0        -195.1973   -93.5490   212.1666 C0            1 RES     
    5263 C0        -194.0902   -94.3641   212.4869 C0            1 RES     
    5264 N3        -193.2567   -94.9287   211.5749 N3            1 RES     
    5265 S1        -192.1837   -95.7467   212.5264 S1            1 RES     
    5266 N3        -192.6930   -95.4328   214.0626 N3            1 RES     
    5267 C0        -193.7783   -94.6424   213.8501 C0            1 RES     
    5268 C0        -194.5525   -94.1209   214.8718 C0            1 RES     
    5269 H4        -196.7948   -92.4135   213.1152 H4            1 RES     
    5270 C5        -189.4718   -90.5294   215.4648 C5            1 RES     
    5271 C5        -190.1043   -91.4852   214.4533 C5            1 RES     
    5272 C5        -191.6063   -91.2317   214.2397 C5            1 RES     
    5273 C5        -191.9097   -89.8716   213.5847 C5            1 RES     
    5274 C5        -193.4194   -89.6963   213.3599 C5            1 RES     
    5275 C5        -193.7245   -88.4046   212.5700 C5            1 RES     
    5276 C5        -195.2250   -88.1738   212.2479 C5            1 RES     
    5277 C5        -195.8388   -89.4183   211.6041 C5            1 RES     
    5278 C5        -197.1811   -89.2561   210.8473 C5            1 RES     
    5279 C5        -198.5005   -88.9756   211.6651 C5            1 RES     
    5280 C5        -198.8613   -90.3027   212.3887 C5            1 RES     
    5281 C5        -200.0819   -90.5978   213.2685 C5            1 RES     
    5282 C5        -199.9189   -92.0988   213.6778 C5            1 RES     
    5283 C5        -200.9898   -92.7202   214.5727 C5            1 RES     
    5284 C5        -202.3200   -92.9266   213.8588 C5            1 RES     
    5285 C5        -196.9905   -88.6681   209.4416 C5            1 RES     
    5286 C0        -197.8220   -89.4377   208.3351 C0            1 RES     
    5287 C5        -198.0801   -88.4537   207.1136 C5            1 RES     
    5288 C5        -199.5609   -88.2348   206.6448 C5            1 RES     
    5289 C5        -200.0682   -89.2813   205.6109 C5            1 RES     
    5290 C5        -199.5560   -89.0803   204.1649 C5            1 RES     
    5291 C5        -199.8433   -90.2798   203.2405 C5            1 RES     
    5292 C5        -201.3200   -90.4854   202.8681 C5            1 RES     
    5293 C5        -201.9442   -89.3366   202.0526 C5            1 RES     
    5294 C5        -201.2212   -89.0747   200.7276 C5            1 RES     
    5295 C5        -199.8652   -86.7504   206.2040 C5            1 RES     
    5296 C5        -198.8333   -86.0620   205.2683 C5            1 RES     
    5297 C5        -199.2975   -84.7074   204.6874 C5            1 RES     
    5298 C5        -199.5730   -83.6061   205.7305 C5            1 RES     
    5299 C5        -199.9759   -82.2547   205.0905 C5            1 RES     
    5300 C5        -198.8384   -81.5880   204.2857 C5            1 RES     
    5301 C5        -199.2333   -80.2486   203.6348 C5            1 RES     
    5302 C5        -199.5734   -79.1477   204.6395 C5            1 RES     
    5303 H6        -189.5122   -89.4808   215.1074 H6            1 RES     
    5304 H6        -188.4048   -90.7997   215.6110 H6            1 RES     
    5305 H6        -189.9939   -90.6075   216.4421 H6            1 RES     
    5306 H6        -189.5639   -91.4157   213.4840 H6            1 RES     
    5307 H6        -189.9807   -92.5199   214.8416 H6            1 RES     
    5308 H6        -191.9863   -92.0340   213.5681 H6            1 RES     
    5309 H6        -192.1373   -91.3163   215.2123 H6            1 RES     
    5310 H6        -191.3847   -89.8343   212.6039 H6            1 RES     
    5311 H6        -191.5467   -89.0363   214.2178 H6            1 RES     
    5312 H6        -193.7627   -90.5749   212.7732 H6            1 RES     
    5313 H6        -193.9504   -89.6841   214.3357 H6            1 RES     
    5314 H6        -193.3351   -87.5197   213.1177 H6            1 RES     
    5315 H6        -193.1781   -88.4726   211.6024 H6            1 RES     
    5316 H6        -195.8021   -87.9195   213.1627 H6            1 RES     
    5317 H6        -195.2761   -87.3130   211.5467 H6            1 RES     
    5318 H6        -195.9346   -90.1946   212.3860 H6            1 RES     
    5319 H6        -195.1077   -89.8185   210.8652 H6            1 RES     
    5320 H6        -197.3570   -90.2197   210.5322 H6            1 RES     
    5321 H6        -198.3661   -88.1180   212.3572 H6            1 RES     
    5322 H6        -199.3363   -88.7477   210.9674 H6            1 RES     
    5323 H6        -199.0270   -91.0142   211.5580 H6            1 RES     
    5324 H6        -197.9829   -90.5542   213.0065 H6            1 RES     
    5325 H6        -201.0197   -90.4421   212.6925 H6            1 RES     
    5326 H6        -200.0828   -89.9507   214.1700 H6            1 RES     
    5327 H6        -199.8337   -92.7385   212.7676 H6            1 RES     
    5328 H6        -198.9611   -92.1932   214.2352 H6            1 RES     
    5329 H6        -201.1170   -92.1172   215.4945 H6            1 RES     
    5330 H6        -200.6232   -93.7310   214.8663 H6            1 RES     
    5331 H6        -202.1768   -93.5657   212.9592 H6            1 RES     
    5332 H6        -202.7625   -91.9569   213.5596 H6            1 RES     
    5333 H6        -203.0188   -93.4516   214.5447 H6            1 RES     
    5334 H6        -195.9358   -88.7444   209.0989 H6            1 RES     
    5335 H6        -197.2234   -87.5853   209.5335 H6            1 RES     
    5336 H6        -197.8224   -87.4511   207.5047 H6            1 RES     
    5337 H6        -197.3563   -88.5744   206.2833 H6            1 RES     
    5338 H6        -200.1920   -88.3859   207.5497 H6            1 RES     
    5339 H6        -199.7938   -90.2855   205.9961 H6            1 RES     
    5340 H6        -201.1781   -89.2379   205.5709 H6            1 RES     
    5341 H6        -199.9882   -88.1651   203.7176 H6            1 RES     
    5342 H6        -198.4597   -88.9341   204.1844 H6            1 RES     
    5343 H6        -199.2545   -90.1562   202.3088 H6            1 RES     
    5344 H6        -199.4753   -91.2109   203.7181 H6            1 RES     
    5345 H6        -201.9176   -90.6489   203.7894 H6            1 RES     
    5346 H6        -201.3862   -91.4130   202.2584 H6            1 RES     
    5347 H6        -201.9705   -88.4010   202.6483 H6            1 RES     
    5348 H6        -202.9937   -89.6185   201.8219 H6            1 RES     
    5349 H6        -201.1863   -90.0004   200.1141 H6            1 RES     
    5350 H6        -201.7615   -88.2905   200.1580 H6            1 RES     
    5351 H6        -200.1879   -88.7085   200.8988 H6            1 RES     
    5352 H6        -199.8989   -86.1237   207.1212 H6            1 RES     
    5353 H6        -200.8819   -86.7220   205.7551 H6            1 RES     
    5354 H6        -198.6042   -86.6844   204.3932 H6            1 RES     
    5355 H6        -197.8743   -85.9148   205.8092 H6            1 RES     
    5356 H6        -198.4862   -84.3709   204.0118 H6            1 RES     
    5357 H6        -200.2124   -84.8656   204.0746 H6            1 RES     
    5358 H6        -198.6772   -83.4506   206.3702 H6            1 RES     
    5359 H6        -200.4126   -83.9365   206.3751 H6            1 RES     
    5360 H6        -200.8649   -82.4007   204.4386 H6            1 RES     
    5361 H6        -200.2654   -81.5720   205.9191 H6            1 RES     
    5362 H6        -198.5341   -82.2565   203.4562 H6            1 RES     
    5363 H6        -197.9586   -81.4275   204.9464 H6            1 RES     
    5364 H6        -198.3687   -79.8952   203.0302 H6            1 RES     
    5365 H6        -200.0928   -80.4012   202.9472 H6            1 RES     
    5366 H6        -200.4717   -79.4094   205.2336 H6            1 RES     
    5367 H6        -199.7902   -78.2060   204.0909 H6            1 RES     
    5368 H6        -198.7150   -78.9679   205.3209 H6            1 RES     
    5369 C0        -195.0299   -94.2239   220.2387 C0            1 RES     
    5370 C0        -194.2364   -95.4588   220.8290 C0            1 RES     
    5371 C0        -193.3964   -95.9814   219.9044 C0            1 RES     
    5372 S1        -192.4834   -97.2751   220.4608 S1            1 RES     
    5373 C0        -193.1611   -97.2148   222.0178 C0            1 RES     
    5374 C0        -194.1534   -96.2239   222.0233 C0            1 RES     
    5375 C0        -193.5826   -95.3207   218.6663 C0            1 RES     
    5376 C0        -194.4834   -94.3762   218.8148 C0            1 RES     
    5377 C0        -194.8570   -93.8190   217.5451 C0            1 RES     
    5378 C0        -194.1853   -94.4308   216.5025 C0            1 RES     
    5379 S1        -192.9924   -95.6770   217.0213 S1            1 RES     
    5380 H2        -194.7414   -96.0609   222.8891 H2            1 RES     
    5381 H2        -195.6434   -93.1369   217.4163 H2            1 RES     
    5382 N3        -192.7236   -98.3041   225.6322 N3            1 RES     
    5383 C0        -193.1753   -97.6631   224.5178 C0            1 RES     
    5384 C0        -192.7127   -98.0044   223.2191 C0            1 RES     
    5385 C0        -191.7705   -99.0532   223.1483 C0            1 RES     
    5386 N3        -191.2209   -99.5219   221.9978 N3            1 RES     
    5387 S1        -190.2190  -100.7174   222.5390 S1            1 RES     
    5388 N3        -190.4168  -100.6932   224.1754 N3            1 RES     
    5389 C0        -191.3274   -99.6976   224.3405 C0            1 RES     
    5390 C0        -191.8126   -99.3064   225.5762 C0            1 RES     
    5391 H4        -193.8726   -96.8650   224.6674 H4            1 RES     
    5392 C5        -186.0513   -96.9054   225.9015 C5            1 RES     
    5393 C5        -187.0157   -97.4676   224.8573 C5            1 RES     
    5394 C5        -188.4435   -96.9116   224.9920 C5            1 RES     
    5395 C5        -188.5426   -95.4034   224.6982 C5            1 RES     
    5396 C5        -189.9962   -94.9181   224.8078 C5            1 RES     
    5397 C5        -190.1315   -93.4429   224.3708 C5            1 RES     
    5398 C5        -191.5787   -92.8831   224.3965 C5            1 RES     
    5399 C5        -192.5325   -93.8117   223.6429 C5            1 RES     
    5400 C5        -193.9058   -93.2419   223.2068 C5            1 RES     
    5401 C5        -194.9992   -92.9372   224.3023 C5            1 RES     
    5402 C5        -195.5244   -94.3138   224.7961 C5            1 RES     
    5403 C5        -196.6361   -94.5911   225.8149 C5            1 RES     
    5404 C5        -196.7391   -96.1510   225.8712 C5            1 RES     
    5405 C5        -197.7738   -96.7698   226.8093 C5            1 RES     
    5406 C5        -199.2079   -96.5645   226.3372 C5            1 RES     
    5407 C5        -193.8037   -92.3796   221.9404 C5            1 RES     
    5408 C0        -194.9346   -92.7064   220.8810 C0            1 RES     
    5409 C5        -195.1539   -91.4309   219.9581 C5            1 RES     
    5410 C5        -196.6064   -90.8511   219.8367 C5            1 RES     
    5411 C5        -197.4726   -91.5166   218.7284 C5            1 RES     
    5412 C5        -197.1486   -91.0707   217.2827 C5            1 RES     
    5413 C5        -197.8189   -91.9468   216.2062 C5            1 RES     
    5414 C5        -199.3439   -91.7963   216.0902 C5            1 RES     
    5415 C5        -199.8216   -90.3956   215.6608 C5            1 RES     
    5416 C5        -199.2631   -89.9572   214.3033 C5            1 RES     
    5417 C5        -196.6481   -89.2748   219.7739 C5            1 RES     
    5418 C5        -195.6428   -88.5755   218.8178 C5            1 RES     
    5419 C5        -195.8874   -87.0619   218.6248 C5            1 RES     
    5420 C5        -195.7640   -86.2092   219.9033 C5            1 RES     
    5421 C5        -195.9587   -84.6955   219.6412 C5            1 RES     
    5422 C5        -194.8367   -84.0665   218.7860 C5            1 RES     
    5423 C5        -195.0279   -82.5629   218.5094 C5            1 RES     
    5424 C5        -194.9727   -81.6902   219.7633 C5            1 RES     
    5425 H6        -185.9190   -95.8115   225.7796 H6            1 RES     
    5426 H6        -185.0571   -97.3852   225.7822 H6            1 RES     
    5427 H6        -186.4277   -97.1207   226.9242 H6            1 RES     
    5428 H6        -186.6222   -97.2655   223.8371 H6            1 RES     
    5429 H6        -187.0602   -98.5701   224.9958 H6            1 RES     
    5430 H6        -189.0811   -97.4521   224.2569 H6            1 RES     
    5431 H6        -188.8308   -97.1306   226.0105 H6            1 RES     
    5432 H6        -188.1725   -95.2267   223.6634 H6            1 RES     
    5433 H6        -187.9201   -94.8192   225.4064 H6            1 RES     
    5434 H6        -190.6021   -95.5581   224.1315 H6            1 RES     
    5435 H6        -190.3622   -95.0453   225.8490 H6            1 RES     
    5436 H6        -189.4854   -92.7957   225.0020 H6            1 RES     
    5437 H6        -189.7613   -93.3737   223.3232 H6            1 RES     
    5438 H6        -191.9465   -92.7564   225.4373 H6            1 RES     
    5439 H6        -191.5476   -91.8851   223.9083 H6            1 RES     
    5440 H6        -192.6754   -94.7225   224.2540 H6            1 RES     
    5441 H6        -192.0211   -94.1467   222.7118 H6            1 RES     
    5442 H6        -194.3281   -94.0570   222.7419 H6            1 RES     
    5443 H6        -194.5839   -92.3057   225.1155 H6            1 RES     
    5444 H6        -195.8607   -92.4073   223.8392 H6            1 RES     
    5445 H6        -195.9591   -94.7673   223.8856 H6            1 RES     
    5446 H6        -194.6386   -94.8548   225.1695 H6            1 RES     
    5447 H6        -197.5935   -94.1413   225.4736 H6            1 RES     
    5448 H6        -196.3656   -94.1868   226.8123 H6            1 RES     
    5449 H6        -196.9279   -96.5609   224.8507 H6            1 RES     
    5450 H6        -195.7520   -96.5413   226.2033 H6            1 RES     
    5451 H6        -197.6316   -96.3904   227.8415 H6            1 RES     
    5452 H6        -197.5924   -97.8696   226.8152 H6            1 RES     
    5453 H6        -199.3391   -96.9865   225.3159 H6            1 RES     
    5454 H6        -199.4722   -95.4894   226.3322 H6            1 RES     
    5455 H6        -199.8935   -97.1067   227.0230 H6            1 RES     
    5456 H6        -192.8522   -92.5558   221.3935 H6            1 RES     
    5457 H6        -193.7837   -91.3261   222.2937 H6            1 RES     
    5458 H6        -194.6331   -90.6111   220.4881 H6            1 RES     
    5459 H6        -194.6034   -91.4758   218.9975 H6            1 RES     
    5460 H6        -197.1145   -91.0999   220.7958 H6            1 RES     
    5461 H6        -197.3653   -92.6156   218.8412 H6            1 RES     
    5462 H6        -198.5411   -91.2712   218.9118 H6            1 RES     
    5463 H6        -197.4364   -90.0143   217.1224 H6            1 RES     
    5464 H6        -196.0559   -91.1276   217.1208 H6            1 RES     
    5465 H6        -197.3616   -91.7106   215.2239 H6            1 RES     
    5466 H6        -197.5920   -93.0144   216.4046 H6            1 RES     
    5467 H6        -199.8198   -92.0667   217.0561 H6            1 RES     
    5468 H6        -199.6961   -92.5261   215.3287 H6            1 RES     
    5469 H6        -199.5591   -89.6386   216.4282 H6            1 RES     
    5470 H6        -200.9294   -90.4263   215.5834 H6            1 RES     
    5471 H6        -199.5179   -90.7021   213.5192 H6            1 RES     
    5472 H6        -199.7015   -88.9780   214.0197 H6            1 RES     
    5473 H6        -198.1618   -89.8290   214.3439 H6            1 RES     
    5474 H6        -196.4113   -88.8880   220.7886 H6            1 RES     
    5475 H6        -197.6902   -88.9630   219.5439 H6            1 RES     
    5476 H6        -195.6838   -89.0025   217.8069 H6            1 RES     
    5477 H6        -194.6053   -88.7312   219.1830 H6            1 RES     
    5478 H6        -195.1318   -86.7221   217.8889 H6            1 RES     
    5479 H6        -196.8952   -86.9073   218.1798 H6            1 RES     
    5480 H6        -194.7712   -86.3695   220.3772 H6            1 RES     
    5481 H6        -196.5502   -86.5311   220.6160 H6            1 RES     
    5482 H6        -196.9447   -84.5244   219.1561 H6            1 RES     
    5483 H6        -195.9700   -84.1893   220.6312 H6            1 RES     
    5484 H6        -194.8082   -84.5614   217.7951 H6            1 RES     
    5485 H6        -193.8552   -84.2241   219.2841 H6            1 RES     
    5486 H6        -194.2069   -82.2331   217.8349 H6            1 RES     
    5487 H6        -195.9921   -82.3949   217.9831 H6            1 RES     
    5488 H6        -195.8084   -81.9241   220.4528 H6            1 RES     
    5489 H6        -195.0619   -80.6221   219.4699 H6            1 RES     
    5490 H6        -194.0048   -81.8306   220.2894 H6            1 RES     
    5491 C0        -191.5029  -100.5962   230.7994 C0            1 RES     
    5492 C0        -190.9134  -102.0552   230.9626 C0            1 RES     
    5493 C0        -190.3505  -102.4820   229.8074 C0            1 RES     
    5494 S1        -189.6631  -104.0101   229.9030 S1            1 RES     
    5495 C0        -190.0747  -104.2036   231.5402 C0            1 RES     
    5496 C0        -190.8204  -103.0845   231.9375 C0            1 RES     
    5497 C0        -190.5720  -101.5240   228.7889 C0            1 RES     
    5498 C0        -191.2181  -100.4991   229.2966 C0            1 RES     
    5499 C0        -191.6474   -99.5997   228.2627 C0            1 RES     
    5500 C0        -191.2834  -100.0542   227.0082 C0            1 RES     
    5501 S1        -190.3212  -101.5769   227.0238 S1            1 RES     
    5502 H2        -191.2255  -103.0315   232.9148 H2            1 RES     
    5503 H2        -192.2800   -98.7796   228.4287 H2            1 RES     
    5504 N3        -189.3512  -106.1797   234.7047 N3            1 RES     
    5505 C0        -189.8149  -105.2234   233.8519 C0            1 RES     
    5506 C0        -189.6330  -105.3220   232.4467 C0            1 RES     
    5507 C0        -188.9577  -106.4723   231.9845 C0            1 RES     
    5508 N3        -188.6971  -106.7431   230.6791 N3            1 RES     
    5509 S1        -187.9051  -108.1893   230.7631 S1            1 RES     
    5510 N3        -187.8493  -108.5203   232.3771 N3            1 RES     
    5511 C0        -188.4915  -107.4487   232.9130 C0            1 RES     
    5512 C0        -188.6939  -107.2835   234.2721 C0            1 RES     
    5513 H4        -190.2957  -104.3743   234.2918 H4            1 RES     
    5514 C5        -182.5693  -106.0756   233.9676 C5            1 RES     
    5515 C5        -183.7750  -106.1959   233.0357 C5            1 RES     
    5516 C5        -185.0150  -105.4466   233.5522 C5            1 RES     
    5517 C5        -184.8318  -103.9184   233.5961 C5            1 RES     
    5518 C5        -186.1156  -103.2263   234.0790 C5            1 RES     
    5519 C5        -185.9955  -101.6892   233.9857 C5            1 RES     
    5520 C5        -187.2697  -100.9070   234.4019 C5            1 RES     
    5521 C5        -188.5004  -101.4483   233.6725 C5            1 RES     
    5522 C5        -189.7692  -100.5598   233.6333 C5            1 RES     
    5523 C5        -190.5982  -100.3375   234.9569 C5            1 RES     
    5524 C5        -191.3265  -101.6781   235.2516 C5            1 RES     
    5525 C5        -192.3089  -101.9903   236.3866 C5            1 RES     
    5526 C5        -192.7334  -103.4761   236.1428 C5            1 RES     
    5527 C5        -193.7263  -104.1090   237.1161 C5            1 RES     
    5528 C5        -195.1370  -103.5496   236.9798 C5            1 RES     
    5529 C5        -189.6734   -99.4529   232.5733 C5            1 RES     
    5530 C0        -190.9918   -99.3155   231.7067 C0            1 RES     
    5531 C5        -191.0673   -97.8392   231.1223 C5            1 RES     
    5532 C5        -192.3640   -97.0020   231.4025 C5            1 RES     
    5533 C5        -193.5063   -97.2228   230.3692 C5            1 RES     
    5534 C5        -193.3117   -96.5102   229.0098 C5            1 RES     
    5535 C5        -194.3052   -96.9742   227.9266 C5            1 RES     
    5536 C5        -195.7628   -96.5358   228.1385 C5            1 RES     
    5537 C5        -195.9882   -95.0118   228.1030 C5            1 RES     
    5538 C5        -195.5557   -94.3682   226.7817 C5            1 RES     
    5539 C5        -192.0766   -95.4737   231.6711 C5            1 RES     
    5540 C5        -191.0976   -94.7544   230.7025 C5            1 RES     
    5541 C5        -191.0389   -93.2196   230.8722 C5            1 RES     
    5542 C5        -190.5487   -92.7302   232.2495 C5            1 RES     
    5543 C5        -190.4519   -91.1875   232.3434 C5            1 RES     
    5544 C5        -189.3604   -90.5798   231.4350 C5            1 RES     
    5545 C5        -189.2645   -89.0441   231.5122 C5            1 RES     
    5546 C5        -188.8396   -88.5177   232.8831 C5            1 RES     
    5547 H6        -182.2258  -105.0247   234.0478 H6            1 RES     
    5548 H6        -181.7293  -106.6798   233.5646 H6            1 RES     
    5549 H6        -182.8277  -106.4584   234.9778 H6            1 RES     
    5550 H6        -183.5024  -105.8293   232.0218 H6            1 RES     
    5551 H6        -184.0330  -107.2743   232.9528 H6            1 RES     
    5552 H6        -185.8548  -105.6767   232.8587 H6            1 RES     
    5553 H6        -185.2853  -105.8299   234.5597 H6            1 RES     
    5554 H6        -184.5895  -103.5685   232.5675 H6            1 RES     
    5555 H6        -184.0012  -103.6375   234.2754 H6            1 RES     
    5556 H6        -186.9373  -103.5710   233.4157 H6            1 RES     
    5557 H6        -186.3424  -103.5310   235.1230 H6            1 RES     
    5558 H6        -185.1401  -101.3339   234.5994 H6            1 RES     
    5559 H6        -185.7779  -101.4391   232.9229 H6            1 RES     
    5560 H6        -187.4440  -100.9688   235.4976 H6            1 RES     
    5561 H6        -187.0985   -99.8430   234.1304 H6            1 RES     
    5562 H6        -188.7428  -102.4386   234.1012 H6            1 RES     
    5563 H6        -188.2157  -101.6367   232.6122 H6            1 RES     
    5564 H6        -190.4199  -101.1542   233.1021 H6            1 RES     
    5565 H6        -189.9420   -99.9999   235.7865 H6            1 RES     
    5566 H6        -191.3852   -99.5703   234.7854 H6            1 RES     
    5567 H6        -191.9777  -101.8190   234.3684 H6            1 RES     
    5568 H6        -190.5316  -102.4388   235.3299 H6            1 RES     
    5569 H6        -193.1878  -101.3119   236.3341 H6            1 RES     
    5570 H6        -191.8140  -101.8884   237.3745 H6            1 RES     
    5571 H6        -193.1541  -103.5923   235.1159 H6            1 RES     
    5572 H6        -191.8145  -104.1008   236.1928 H6            1 RES     
    5573 H6        -193.3554  -104.0166   238.1570 H6            1 RES     
    5574 H6        -193.7853  -105.1929   236.8631 H6            1 RES     
    5575 H6        -195.5047  -103.6872   235.9386 H6            1 RES     
    5576 H6        -195.1632  -102.4749   237.2445 H6            1 RES     
    5577 H6        -195.8137  -104.1105   237.6594 H6            1 RES     
    5578 H6        -188.8730   -99.6580   231.8298 H6            1 RES     
    5579 H6        -189.3767   -98.5337   233.1231 H6            1 RES     
    5580 H6        -190.3109   -97.2729   231.6981 H6            1 RES     
    5581 H6        -190.6872   -97.7502   230.0853 H6            1 RES     
    5582 H6        -192.7661   -97.3786   232.3701 H6            1 RES     
    5583 H6        -193.6209   -98.3185   230.2332 H6            1 RES     
    5584 H6        -194.4586   -96.8449   230.8003 H6            1 RES     
    5585 H6        -193.3876   -95.4124   229.1262 H6            1 RES     
    5586 H6        -192.2925   -96.7174   228.6331 H6            1 RES     
    5587 H6        -193.9582   -96.5952   226.9439 H6            1 RES     
    5588 H6        -194.2850   -98.0810   227.8562 H6            1 RES     
    5589 H6        -196.1375   -96.9402   229.1021 H6            1 RES     
    5590 H6        -196.3714   -96.9905   227.3264 H6            1 RES     
    5591 H6        -195.4596   -94.5168   228.9434 H6            1 RES     
    5592 H6        -197.0760   -94.8288   228.2349 H6            1 RES     
    5593 H6        -196.0767   -94.8491   225.9262 H6            1 RES     
    5594 H6        -195.8117   -93.2885   226.7928 H6            1 RES     
    5595 H6        -194.4588   -94.4482   226.6354 H6            1 RES     
    5596 H6        -191.6154   -95.3866   232.6785 H6            1 RES     
    5597 H6        -193.0503   -94.9387   231.7136 H6            1 RES     
    5598 H6        -191.3778   -94.9151   229.6529 H6            1 RES     
    5599 H6        -190.0751   -95.1717   230.8223 H6            1 RES     
    5600 H6        -190.3453   -92.8524   230.0899 H6            1 RES     
    5601 H6        -192.0448   -92.7897   230.6698 H6            1 RES     
    5602 H6        -189.5543   -93.1697   232.4814 H6            1 RES     
    5603 H6        -191.2714   -93.0694   233.0192 H6            1 RES     
    5604 H6        -191.4392   -90.7362   232.1017 H6            1 RES     
    5605 H6        -190.2084   -90.9371   233.3991 H6            1 RES     
    5606 H6        -189.5850   -90.8223   230.3775 H6            1 RES     
    5607 H6        -188.3727   -91.0207   231.6928 H6            1 RES     
    5608 H6        -188.5008   -88.7124   230.7743 H6            1 RES     
    5609 H6        -190.2374   -88.5896   231.2261 H6            1 RES     
    5610 H6        -189.5947   -88.7587   233.6578 H6            1 RES     
    5611 H6        -188.7407   -87.4119   232.8359 H6            1 RES     
    5612 H6        -187.8571   -88.9463   233.1739 H6            1 RES     
    5613 C0        -187.8990  -109.8109   238.9649 C0            1 RES     
    5614 C0        -187.6174  -111.3469   238.7115 C0            1 RES     
    5615 C0        -187.3356  -111.5788   237.4075 C0            1 RES     
    5616 S1        -186.9843  -113.1820   237.0563 S1            1 RES     
    5617 C0        -187.1813  -113.6837   238.6678 C0            1 RES     
    5618 C0        -187.6035  -112.5782   239.4201 C0            1 RES     
    5619 C0        -187.4953  -110.3828   236.6671 C0            1 RES     
    5620 C0        -187.8252  -109.4110   237.4871 C0            1 RES     
    5621 C0        -188.2002  -108.2309   236.7599 C0            1 RES     
    5622 C0        -188.1312  -108.4309   235.3931 C0            1 RES     
    5623 S1        -187.5251  -110.0580   234.9136 S1            1 RES     
    5624 H2        -187.8390  -112.6888   240.4469 H2            1 RES     
    5625 H2        -188.6114  -107.3760   237.2077 H2            1 RES     
    5626 N3        -186.4375  -116.4502   241.1649 N3            1 RES     
    5627 C0        -186.8069  -115.2527   240.6298 C0            1 RES     
    5628 C0        -186.8599  -115.0450   239.2258 C0            1 RES     
    5629 C0        -186.5219  -116.1525   238.4183 C0            1 RES     
    5630 N3        -186.5209  -116.1467   237.0599 N3            1 RES     
    5631 S1        -186.0528  -117.6872   236.6942 S1            1 RES     
    5632 N3        -185.8312  -118.3966   238.1657 N3            1 RES     
    5633 C0        -186.1432  -117.3877   239.0215 C0            1 RES     
    5634 C0        -186.1026  -117.5172   240.3988 C0            1 RES     
    5635 H4        -187.0248  -114.4618   241.3172 H4            1 RES     
    5636 C5        -179.9751  -117.3632   239.1771 C5            1 RES     
    5637 C5        -181.3027  -117.0456   238.4892 C5            1 RES     
    5638 C5        -182.2638  -116.2353   239.3756 C5            1 RES     
    5639 C5        -181.7538  -114.8177   239.6936 C5            1 RES     
    5640 C5        -182.7743  -114.0463   240.5444 C5            1 RES     
    5641 C5        -182.3436  -112.5765   240.7446 C5            1 RES     
    5642 C5        -183.3454  -111.7050   241.5480 C5            1 RES     
    5643 C5        -184.7573  -111.8333   240.9736 C5            1 RES     
    5644 C5        -185.7985  -110.7529   241.3603 C5            1 RES     
    5645 C5        -186.3560  -110.7097   242.8354 C5            1 RES     
    5646 C5        -187.3023  -111.9331   242.9852 C5            1 RES     
    5647 C5        -188.1500  -112.3290   244.1999 C5            1 RES     
    5648 C5        -188.9134  -113.6164   243.7449 C5            1 RES     
    5649 C5        -189.8638  -114.2785   244.7411 C5            1 RES     
    5650 C5        -191.1266  -113.4645   244.9948 C5            1 RES     
    5651 C5        -185.6260  -109.4603   240.5496 C5            1 RES     
    5652 C0        -186.9978  -108.8923   239.9985 C0            1 RES     
    5653 C5        -186.8415  -107.3296   239.7524 C5            1 RES     
    5654 C5        -187.8734  -106.3692   240.4406 C5            1 RES     
    5655 C5        -189.1763  -106.1348   239.6228 C5            1 RES     
    5656 C5        -189.0369  -105.1650   238.4254 C5            1 RES     
    5657 C5        -190.2554  -105.1770   237.4816 C5            1 RES     
    5658 C5        -191.5380  -104.5533   238.0540 C5            1 RES     
    5659 C5        -191.4352  -103.0492   238.3734 C5            1 RES     
    5660 C5        -191.0752  -102.1963   237.1528 C5            1 RES     
    5661 C5        -187.2296  -105.0232   240.9544 C5            1 RES     
    5662 C5        -186.2735  -104.2773   239.9830 C5            1 RES     
    5663 C5        -185.8638  -102.8614   240.4471 C5            1 RES     
    5664 C5        -185.0824  -102.8068   241.7749 C5            1 RES     
    5665 C5        -184.6454  -101.3721   242.1605 C5            1 RES     
    5666 C5        -183.5956  -100.7668   241.2026 C5            1 RES     
    5667 C5        -183.1635   -99.3346   241.5709 C5            1 RES     
    5668 C5        -182.4382   -99.2318   242.9126 C5            1 RES     
    5669 H6        -179.4069  -116.4383   239.4020 H6            1 RES     
    5670 H6        -179.3526  -117.9918   238.5060 H6            1 RES     
    5671 H6        -180.1573  -117.9237   240.1187 H6            1 RES     
    5672 H6        -181.1110  -116.5023   237.5382 H6            1 RES     
    5673 H6        -181.7946  -118.0112   238.2396 H6            1 RES     
    5674 H6        -183.2264  -116.1433   238.8241 H6            1 RES     
    5675 H6        -182.4579  -116.7936   240.3167 H6            1 RES     
    5676 H6        -181.5969  -114.2815   238.7308 H6            1 RES     
    5677 H6        -180.7913  -114.8561   240.2436 H6            1 RES     
    5678 H6        -183.7395  -114.0741   239.9951 H6            1 RES     
    5679 H6        -182.9043  -114.5457   241.5283 H6            1 RES     
    5680 H6        -181.3510  -112.5327   241.2421 H6            1 RES     
    5681 H6        -182.2371  -112.1232   239.7334 H6            1 RES     
    5682 H6        -183.3651  -111.9937   242.6208 H6            1 RES     
    5683 H6        -182.9928  -110.6538   241.4710 H6            1 RES     
    5684 H6        -185.1397  -112.8389   241.2302 H6            1 RES     
    5685 H6        -184.6793  -111.8113   239.8627 H6            1 RES     
    5686 H6        -186.6323  -111.0807   240.8542 H6            1 RES     
    5687 H6        -185.5277  -110.6992   243.5747 H6            1 RES     
    5688 H6        -186.9774  -109.7981   242.9779 H6            1 RES     
    5689 H6        -188.0917  -111.7439   242.2336 H6            1 RES     
    5690 H6        -186.6856  -112.8177   242.7531 H6            1 RES     
    5691 H6        -188.8615  -111.5145   244.4563 H6            1 RES     
    5692 H6        -187.5044  -112.5530   245.0742 H6            1 RES     
    5693 H6        -189.4962  -113.4098   242.8161 H6            1 RES     
    5694 H6        -188.1522  -114.3861   243.4895 H6            1 RES     
    5695 H6        -189.3321  -114.5024   245.6880 H6            1 RES     
    5696 H6        -190.1897  -115.2437   244.2889 H6            1 RES     
    5697 H6        -191.6649  -113.2843   244.0377 H6            1 RES     
    5698 H6        -190.8832  -112.4960   245.4727 H6            1 RES     
    5699 H6        -191.7995  -114.0434   245.6629 H6            1 RES     
    5700 H6        -185.0067  -109.6197   239.6404 H6            1 RES     
    5701 H6        -185.0619  -108.7646   241.2076 H6            1 RES     
    5702 H6        -185.9050  -107.0579   240.2753 H6            1 RES     
    5703 H6        -186.6086  -107.0649   238.7019 H6            1 RES     
    5704 H6        -188.1993  -106.8885   241.3701 H6            1 RES     
    5705 H6        -189.5412  -107.1293   239.2912 H6            1 RES     
    5706 H6        -189.9514  -105.7094   240.2963 H6            1 RES     
    5707 H6        -188.8583  -104.1305   238.7751 H6            1 RES     
    5708 H6        -188.1526  -105.4520   237.8260 H6            1 RES     
    5709 H6        -189.9844  -104.6423   236.5487 H6            1 RES     
    5710 H6        -190.4828  -106.2215   237.1849 H6            1 RES     
    5711 H6        -191.8439  -105.1030   238.9687 H6            1 RES     
    5712 H6        -192.3427  -104.6883   237.2986 H6            1 RES     
    5713 H6        -190.6948  -102.8685   239.1795 H6            1 RES     
    5714 H6        -192.4271  -102.7153   238.7460 H6            1 RES     
    5715 H6        -191.8074  -102.3612   236.3336 H6            1 RES     
    5716 H6        -191.0900  -101.1225   237.4324 H6            1 RES     
    5717 H6        -190.0546  -102.4300   236.7856 H6            1 RES     
    5718 H6        -186.6168  -105.2601   241.8508 H6            1 RES     
    5719 H6        -188.0492  -104.3516   241.2909 H6            1 RES     
    5720 H6        -186.7334  -104.1324   238.9964 H6            1 RES     
    5721 H6        -185.3576  -104.8835   239.8170 H6            1 RES     
    5722 H6        -185.2311  -102.4462   239.6377 H6            1 RES     
    5723 H6        -186.7732  -102.2264   240.5333 H6            1 RES     
    5724 H6        -184.1818  -103.4560   241.7173 H6            1 RES     
    5725 H6        -185.7390  -103.1872   242.5835 H6            1 RES     
    5726 H6        -185.5380  -100.7106   242.2098 H6            1 RES     
    5727 H6        -184.2009  -101.4262   243.1783 H6            1 RES     
    5728 H6        -184.0206  -100.7080   240.1810 H6            1 RES     
    5729 H6        -182.6980  -101.4222   241.1709 H6            1 RES     
    5730 H6        -182.4641   -98.9762   240.7834 H6            1 RES     
    5731 H6        -184.0481   -98.6621   241.5754 H6            1 RES     
    5732 H6        -183.1044   -99.5138   243.7523 H6            1 RES     
    5733 H6        -182.1134   -98.1812   243.0734 H6            1 RES     
    5734 H6        -181.5381   -99.8824   242.9161 H6            1 RES     
    5735 C0        -185.1820  -121.1860   244.2373 C0            1 RES     
    5736 C0        -185.2757  -122.6427   243.6274 C0            1 RES     
    5737 C0        -185.2458  -122.6039   242.2741 C0            1 RES     
    5738 S1        -185.3010  -124.1138   241.5433 S1            1 RES     
    5739 C0        -185.3604  -124.9414   243.0261 C0            1 RES     
    5740 C0        -185.4208  -123.9900   244.0545 C0            1 RES     
    5741 C0        -185.2537  -121.2573   241.8374 C0            1 RES     
    5742 C0        -185.2435  -120.4658   242.8858 C0            1 RES     
    5743 C0        -185.4609  -119.0998   242.4998 C0            1 RES     
    5744 C0        -185.6388  -118.9783   241.1336 C0            1 RES     
    5745 S1        -185.4721  -120.5252   240.2257 S1            1 RES     
    5746 H2        -185.5202  -124.2983   245.0629 H2            1 RES     
    5747 H2        -185.6091  -118.3174   243.1825 H2            1 RES     
    5748 N3        -184.8645  -128.3081   244.7178 N3            1 RES     
    5749 C0        -185.0444  -126.9722   244.5186 C0            1 RES     
    5750 C0        -185.2585  -126.4309   243.2231 C0            1 RES     
    5751 C0        -185.2880  -127.3564   242.1576 C0            1 RES     
    5752 N3        -185.4865  -127.0284   240.8544 N3            1 RES     
    5753 S1        -185.4176  -128.4954   240.0999 S1            1 RES     
    5754 N3        -185.1379  -129.5616   241.3258 N3            1 RES     
    5755 C0        -185.0972  -128.7462   242.4127 C0            1 RES     
    5756 C0        -184.8823  -129.2042   243.7008 C0            1 RES     
    5757 H4        -184.9842  -126.3416   245.3814 H4            1 RES     
    5758 C5        -179.1126  -129.8399   241.3834 C5            1 RES     
    5759 C5        -180.4284  -129.1406   241.0424 C5            1 RES     
    5760 C5        -181.0524  -128.4085   242.2427 C5            1 RES     
    5761 C5        -180.2100  -127.2189   242.7388 C5            1 RES     
    5762 C5        -180.9050  -126.5053   243.9084 C5            1 RES     
    5763 C5        -180.1454  -125.2240   244.3171 C5            1 RES     
    5764 C5        -180.8079  -124.4067   245.4580 C5            1 RES     
    5765 C5        -182.2836  -124.1457   245.1514 C5            1 RES     
    5766 C5        -183.0010  -123.0229   245.9423 C5            1 RES     
    5767 C5        -183.3123  -123.2344   247.4743 C5            1 RES     
    5768 C5        -184.4655  -124.2732   247.5507 C5            1 RES     
    5769 C5        -185.1893  -124.7916   248.7990 C5            1 RES     
    5770 C5        -186.2688  -125.7799   248.2466 C5            1 RES     
    5771 C5        -187.1808  -126.4827   249.2507 C5            1 RES     
    5772 C5        -188.1889  -125.5442   249.9022 C5            1 RES     
    5773 C5        -182.6780  -121.6255   245.3939 C5            1 RES     
    5774 C0        -183.9627  -120.7116   245.2437 C0            1 RES     
    5775 C5        -183.5142  -119.1875   245.2955 C5            1 RES     
    5776 C5        -184.2037  -118.2527   246.3497 C5            1 RES     
    5777 C5        -185.5326  -117.6063   245.8623 C5            1 RES     
    5778 C5        -185.3676  -116.4196   244.8833 C5            1 RES     
    5779 C5        -186.6863  -115.9935   244.2086 C5            1 RES     
    5780 C5        -187.7070  -115.3090   245.1312 C5            1 RES     
    5781 C5        -187.2392  -113.9658   245.7242 C5            1 RES     
    5782 C5        -186.8895  -112.9239   244.6569 C5            1 RES     
    5783 C5        -183.2186  -117.2013   246.9934 C5            1 RES     
    5784 C5        -182.2794  -116.4253   246.0292 C5            1 RES     
    5785 C5        -181.5126  -115.2545   246.6843 C5            1 RES     
    5786 C5        -180.5502  -115.6546   247.8203 C5            1 RES     
    5787 C5        -179.7647  -114.4519   248.3986 C5            1 RES     
    5788 C5        -178.7631  -113.8299   247.4007 C5            1 RES     
    5789 C5        -177.9853  -112.6246   247.9629 C5            1 RES     
    5790 C5        -177.0647  -112.9721   249.1328 C5            1 RES     
    5791 H6        -178.3331  -129.1091   241.6786 H6            1 RES     
    5792 H6        -178.7450  -130.3901   240.4917 H6            1 RES     
    5793 H6        -179.2693  -130.5672   242.2083 H6            1 RES     
    5794 H6        -180.2676  -128.4291   240.2031 H6            1 RES     
    5795 H6        -181.1467  -129.9177   240.7007 H6            1 RES     
    5796 H6        -182.0438  -128.0212   241.9167 H6            1 RES     
    5797 H6        -181.2202  -129.1316   243.0699 H6            1 RES     
    5798 H6        -180.0862  -126.5054   241.8934 H6            1 RES     
    5799 H6        -179.2076  -127.5548   243.0743 H6            1 RES     
    5800 H6        -181.9241  -126.2325   243.5606 H6            1 RES     
    5801 H6        -180.9919  -127.1934   244.7763 H6            1 RES     
    5802 H6        -179.1041  -125.4741   244.6131 H6            1 RES     
    5803 H6        -180.0950  -124.5693   243.4181 H6            1 RES     
    5804 H6        -180.7302  -124.9340   246.4330 H6            1 RES     
    5805 H6        -180.2542  -123.4458   245.5304 H6            1 RES     
    5806 H6        -182.8299  -125.1004   245.2664 H6            1 RES     
    5807 H6        -182.3676  -123.8744   244.0743 H6            1 RES     
    5808 H6        -183.9511  -123.0699   245.5497 H6            1 RES     
    5809 H6        -182.4010  -123.5450   248.0273 H6            1 RES     
    5810 H6        -183.6965  -122.2885   247.9159 H6            1 RES     
    5811 H6        -185.2983  -123.7757   247.0191 H6            1 RES     
    5812 H6        -184.0933  -125.1713   247.0295 H6            1 RES     
    5813 H6        -185.6643  -123.9496   249.3474 H6            1 RES     
    5814 H6        -184.4845  -125.3263   249.4689 H6            1 RES     
    5815 H6        -186.9246  -125.2598   247.5088 H6            1 RES     
    5816 H6        -185.7359  -126.5879   247.6987 H6            1 RES     
    5817 H6        -186.5754  -127.0147   250.0122 H6            1 RES     
    5818 H6        -187.7687  -127.2404   248.6826 H6            1 RES     
    5819 H6        -188.8116  -125.0503   249.1233 H6            1 RES     
    5820 H6        -187.6763  -124.7749   250.5114 H6            1 RES     
    5821 H6        -188.8638  -126.1381   250.5550 H6            1 RES     
    5822 H6        -182.2483  -121.6703   244.3698 H6            1 RES     
    5823 H6        -181.8874  -121.2159   246.0591 H6            1 RES     
    5824 H6        -182.4745  -119.2160   245.6732 H6            1 RES     
    5825 H6        -183.3879  -118.7258   244.2962 H6            1 RES     
    5826 H6        -184.4921  -118.9126   247.1990 H6            1 RES     
    5827 H6        -186.1465  -118.4138   245.4116 H6            1 RES     
    5828 H6        -186.0908  -117.2240   246.7443 H6            1 RES     
    5829 H6        -184.9225  -115.5455   245.3954 H6            1 RES     
    5830 H6        -184.6636  -116.7063   244.0798 H6            1 RES     
    5831 H6        -186.4481  -115.3084   243.3697 H6            1 RES     
    5832 H6        -187.1729  -116.8812   243.7548 H6            1 RES     
    5833 H6        -187.9848  -115.9979   245.9562 H6            1 RES     
    5834 H6        -188.6246  -115.1176   244.5328 H6            1 RES     
    5835 H6        -186.3665  -114.1142   246.3929 H6            1 RES     
    5836 H6        -188.0706  -113.5615   246.3403 H6            1 RES     
    5837 H6        -187.7528  -112.7587   243.9773 H6            1 RES     
    5838 H6        -186.6330  -111.9617   245.1467 H6            1 RES     
    5839 H6        -186.0082  -113.2387   244.0609 H6            1 RES     
    5840 H6        -182.5450  -117.7479   247.6883 H6            1 RES     
    5841 H6        -183.8168  -116.4961   247.6105 H6            1 RES     
    5842 H6        -182.8382  -115.9720   245.1997 H6            1 RES     
    5843 H6        -181.5490  -117.1254   245.5706 H6            1 RES     
    5844 H6        -180.9324  -114.7763   245.8703 H6            1 RES     
    5845 H6        -182.2423  -114.5090   247.0707 H6            1 RES     
    5846 H6        -179.8278  -116.4189   247.4600 H6            1 RES     
    5847 H6        -181.1462  -116.0951   248.6452 H6            1 RES     
    5848 H6        -180.4780  -113.6752   248.7518 H6            1 RES     
    5849 H6        -179.1966  -114.8232   249.2795 H6            1 RES     
    5850 H6        -179.3118  -113.4565   246.5134 H6            1 RES     
    5851 H6        -178.0410  -114.6057   247.0646 H6            1 RES     
    5852 H6        -177.3497  -112.2175   247.1455 H6            1 RES     
    5853 H6        -178.6952  -111.8282   248.2739 H6            1 RES     
    5854 H6        -177.6444  -113.3243   250.0094 H6            1 RES     
    5855 H6        -176.5028  -112.0634   249.4387 H6            1 RES     
    5856 H6        -176.3341  -113.7521   248.8310 H6            1 RES     
    5857 C0        -184.2103  -133.7827   246.4627 C0            1 RES     
    5858 C0        -184.7022  -135.0132   245.5986 C0            1 RES     
    5859 C0        -184.8649  -134.6599   244.3016 C0            1 RES     
    5860 S1        -185.3488  -135.9193   243.3032 S1            1 RES     
    5861 C0        -185.3641  -137.0519   244.5698 C0            1 RES     
    5862 C0        -185.0671  -136.3765   245.7623 C0            1 RES     
    5863 C0        -184.6493  -133.2682   244.1578 C0            1 RES     
    5864 C0        -184.3154  -132.7627   245.3235 C0            1 RES     
    5865 C0        -184.2905  -131.3278   245.2727 C0            1 RES     
    5866 C0        -184.6381  -130.8561   244.0199 C0            1 RES     
    5867 S1        -184.9418  -132.1476   242.8014 S1            1 RES     
    5868 H2        -185.0801  -136.8933   246.6868 H2            1 RES     
    5869 H2        -184.1656  -130.7165   246.1159 H2            1 RES     
    5870 N3        -185.3548  -140.7574   245.4135 N3            1 RES     
    5871 C0        -185.2724  -139.4021   245.5287 C0            1 RES     
    5872 C0        -185.5549  -138.5397   244.4361 C0            1 RES     
    5873 C0        -185.9385  -139.1657   243.2305 C0            1 RES     
    5874 N3        -186.2526  -138.5080   242.0842 N3            1 RES     
    5875 S1        -186.6110  -139.7425   241.0480 S1            1 RES     
    5876 N3        -186.3877  -141.1013   241.9543 N3            1 RES     
    5877 C0        -186.0136  -140.5876   243.1559 C0            1 RES     
    5878 C0        -185.7137  -141.3689   244.2582 C0            1 RES     
    5879 H4        -184.9521  -139.0151   246.4738 H4            1 RES     
    5880 C5        -180.6202  -142.4360   240.7968 C5            1 RES     
    5881 C5        -181.7918  -141.4564   240.8642 C5            1 RES     
    5882 C5        -182.0606  -140.9329   242.2853 C5            1 RES     
    5883 C5        -180.9196  -140.0616   242.8420 C5            1 RES     
    5884 C5        -181.2655  -139.5359   244.2436 C5            1 RES     
    5885 C5        -180.1978  -138.5418   244.7510 C5            1 RES     
    5886 C5        -180.4944  -137.9159   246.1399 C5            1 RES     
    5887 C5        -181.9090  -137.3352   246.1818 C5            1 RES     
    5888 C5        -182.2450  -136.3247   247.3073 C5            1 RES     
    5889 C5        -182.3645  -136.8362   248.7948 C5            1 RES     
    5890 C5        -183.6887  -137.6450   248.8780 C5            1 RES     
    5891 C5        -184.3141  -138.3101   250.1099 C5            1 RES     
    5892 C5        -185.6494  -138.9341   249.5855 C5            1 RES     
    5893 C5        -186.5320  -139.6844   250.5814 C5            1 RES     
    5894 C5        -187.2086  -138.7659   251.5914 C5            1 RES     
    5895 C5        -181.7154  -134.9158   247.0032 C5            1 RES     
    5896 C0        -182.7829  -133.7820   247.2915 C0            1 RES     
    5897 C5        -182.0164  -132.4166   247.5654 C5            1 RES     
    5898 C5        -182.3268  -131.6531   248.9001 C5            1 RES     
    5899 C5        -183.5439  -130.6870   248.8187 C5            1 RES     
    5900 C5        -183.2756  -129.3496   248.0887 C5            1 RES     
    5901 C5        -184.5576  -128.5513   247.7806 C5            1 RES     
    5902 C5        -185.2607  -127.9376   249.0016 C5            1 RES     
    5903 C5        -184.4343  -126.8770   249.7545 C5            1 RES     
    5904 C5        -184.0316  -125.6892   248.8748 C5            1 RES     
    5905 C5        -181.0557  -130.9740   249.5431 C5            1 RES     
    5906 C5        -180.1254  -130.1680   248.5950 C5            1 RES     
    5907 C5        -179.0379  -129.3392   249.3151 C5            1 RES     
    5908 C5        -178.0263  -130.1599   250.1397 C5            1 RES     
    5909 C5        -176.9253  -129.2856   250.7890 C5            1 RES     
    5910 C5        -175.9726  -128.6297   249.7654 C5            1 RES     
    5911 C5        -174.8809  -127.7478   250.4012 C5            1 RES     
    5912 C5        -173.8934  -128.5189   251.2770 C5            1 RES     
    5913 H6        -179.6677  -141.9444   241.0794 H6            1 RES     
    5914 H6        -180.5145  -142.8143   239.7582 H6            1 RES     
    5915 H6        -180.8050  -143.2994   241.4708 H6            1 RES     
    5916 H6        -181.6084  -140.6054   240.1724 H6            1 RES     
    5917 H6        -182.7019  -141.9920   240.5157 H6            1 RES     
    5918 H6        -182.9833  -140.3117   242.2414 H6            1 RES     
    5919 H6        -182.2549  -141.7908   242.9646 H6            1 RES     
    5920 H6        -180.7724  -139.2007   242.1519 H6            1 RES     
    5921 H6        -179.9738  -140.6378   242.9034 H6            1 RES     
    5922 H6        -182.2427  -139.0141   244.1607 H6            1 RES     
    5923 H6        -181.3683  -140.3843   244.9534 H6            1 RES     
    5924 H6        -179.2019  -139.0334   244.7845 H6            1 RES     
    5925 H6        -180.1420  -137.7115   244.0115 H6            1 RES     
    5926 H6        -180.3880  -138.6649   246.9537 H6            1 RES     
    5927 H6        -179.7436  -137.1119   246.2987 H6            1 RES     
    5928 H6        -182.6235  -138.1791   246.2027 H6            1 RES     
    5929 H6        -182.0912  -136.8054   245.2190 H6            1 RES     
    5930 H6        -183.2304  -136.1100   247.1031 H6            1 RES     
    5931 H6        -181.4692  -137.4240   249.0876 H6            1 RES     
    5932 H6        -182.4681  -135.9701   249.4850 H6            1 RES     
    5933 H6        -184.4652  -136.8975   248.6287 H6            1 RES     
    5934 H6        -183.5982  -138.4444   248.1234 H6            1 RES     
    5935 H6        -184.5119  -137.5527   250.8989 H6            1 RES     
    5936 H6        -183.6489  -139.1036   250.5090 H6            1 RES     
    5937 H6        -186.2805  -138.1471   249.1088 H6            1 RES     
    5938 H6        -185.3884  -139.6692   248.7927 H6            1 RES     
    5939 H6        -185.9485  -140.4796   251.0882 H6            1 RES     
    5940 H6        -187.3455  -140.1705   249.9946 H6            1 RES     
    5941 H6        -187.8194  -138.0000   251.0636 H6            1 RES     
    5942 H6        -186.4592  -138.2654   252.2345 H6            1 RES     
    5943 H6        -187.8908  -139.3703   252.2268 H6            1 RES     
    5944 H6        -181.4613  -134.7906   245.9284 H6            1 RES     
    5945 H6        -180.7661  -134.8209   247.5735 H6            1 RES     
    5946 H6        -180.9627  -132.7157   247.7227 H6            1 RES     
    5947 H6        -181.9434  -131.7602   246.6757 H6            1 RES     
    5948 H6        -182.6209  -132.4349   249.6365 H6            1 RES     
    5949 H6        -184.3759  -131.2440   248.3394 H6            1 RES     
    5950 H6        -183.8710  -130.4336   249.8504 H6            1 RES     
    5951 H6        -182.5833  -128.7140   248.6728 H6            1 RES     
    5952 H6        -182.7757  -129.5559   247.1237 H6            1 RES     
    5953 H6        -184.3051  -127.7391   247.0690 H6            1 RES     
    5954 H6        -185.2842  -129.2064   247.2576 H6            1 RES     
    5955 H6        -185.5543  -128.7432   249.7067 H6            1 RES     
    5956 H6        -186.1942  -127.4520   248.6421 H6            1 RES     
    5957 H6        -183.5246  -127.3306   250.1989 H6            1 RES     
    5958 H6        -185.0598  -126.4915   250.5878 H6            1 RES     
    5959 H6        -184.9304  -125.2188   248.4216 H6            1 RES     
    5960 H6        -183.5060  -124.9312   249.4916 H6            1 RES     
    5961 H6        -183.3358  -126.0028   248.0694 H6            1 RES     
    5962 H6        -180.4195  -131.7793   249.9697 H6            1 RES     
    5963 H6        -181.3915  -130.3420   250.3938 H6            1 RES     
    5964 H6        -180.6907  -129.4399   247.9982 H6            1 RES     
    5965 H6        -179.6374  -130.8559   247.8721 H6            1 RES     
    5966 H6        -178.4957  -128.7905   248.5196 H6            1 RES     
    5967 H6        -179.5262  -128.5910   249.9779 H6            1 RES     
    5968 H6        -177.5452  -130.9310   249.4996 H6            1 RES     
    5969 H6        -178.5741  -130.6724   250.9564 H6            1 RES     
    5970 H6        -177.3960  -128.5026   251.4231 H6            1 RES     
    5971 H6        -176.3260  -129.9492   251.4501 H6            1 RES     
    5972 H6        -176.5537  -127.9661   249.0947 H6            1 RES     
    5973 H6        -175.4907  -129.4175   249.1462 H6            1 RES     
    5974 H6        -174.3008  -127.2760   249.5773 H6            1 RES     
    5975 H6        -175.3503  -126.9364   250.9980 H6            1 RES     
    5976 H6        -174.3989  -128.9622   252.1581 H6            1 RES     
    5977 H6        -173.1114  -127.8218   251.6478 H6            1 RES     
    5978 H6        -173.3991  -129.3205   250.6882 H6            1 RES     
    5979 C0        -185.6352  -146.5172   245.8490 C0            1 RES     
    5980 C0        -186.5008  -147.4015   244.8633 C0            1 RES     
    5981 C0        -186.7740  -146.7273   243.7212 C0            1 RES     
    5982 S1        -187.6579  -147.6087   242.5992 S1            1 RES     
    5983 C0        -187.7276  -148.9891   243.5876 C0            1 RES     
    5984 C0        -187.1204  -148.6791   244.8130 C0            1 RES     
    5985 C0        -186.2896  -145.4012   243.8251 C0            1 RES     
    5986 C0        -185.6870  -145.2536   244.9830 C0            1 RES     
    5987 C0        -185.3638  -143.8749   245.2215 C0            1 RES     
    5988 C0        -185.7837  -143.0657   244.1814 C0            1 RES     
    5989 S1        -186.5329  -143.9570   242.8070 S1            1 RES     
    5990 H2        -187.1068  -149.3901   245.5979 H2            1 RES     
    5991 H2        -184.9880  -143.5130   246.1315 H2            1 RES     
    5992 N3        -188.3859  -152.7316   243.6417 N3            1 RES     
    5993 C0        -187.9997  -151.4784   244.0124 C0            1 RES     
    5994 C0        -188.2495  -150.3454   243.1931 C0            1 RES     
    5995 C0        -188.9319  -150.5900   241.9818 C0            1 RES     
    5996 N3        -189.2639  -149.6343   241.0754 N3            1 RES     
    5997 S1        -190.0269  -150.5049   239.8981 S1            1 RES     
    5998 N3        -189.9678  -152.0576   240.4488 N3            1 RES     
    5999 C0        -189.3192  -151.9177   241.6352 C0            1 RES     
    6000 C0        -189.0337  -152.9785   242.4769 C0            1 RES     
    6001 H4        -187.4681  -151.3893   244.9370 H4            1 RES     
    6002 C5        -184.8544  -154.0678   237.9591 C5            1 RES     
    6003 C5        -185.7665  -152.9427   238.4480 C5            1 RES     
    6004 C5        -185.7043  -152.7330   239.9706 C5            1 RES     
    6005 C5        -184.3341  -152.2325   240.4635 C5            1 RES     
    6006 C5        -184.3487  -152.0026   241.9824 C5            1 RES     
    6007 C5        -183.0303  -151.3603   242.4671 C5            1 RES     
    6008 C5        -182.9778  -151.0402   243.9848 C5            1 RES     
    6009 C5        -184.2136  -150.2477   244.4146 C5            1 RES     
    6010 C5        -184.1558  -149.4908   245.7654 C5            1 RES     
    6011 C5        -184.1609  -150.3119   247.1123 C5            1 RES     
    6012 C5        -185.6002  -150.8725   247.2817 C5            1 RES     
    6013 C5        -186.1643  -151.6911   248.4490 C5            1 RES     
    6014 C5        -187.6645  -151.9290   248.0748 C5            1 RES     
    6015 C5        -188.5300  -152.7279   249.0476 C5            1 RES     
    6016 C5        -188.8380  -151.9717   250.3341 C5            1 RES     
    6017 C5        -183.3883  -148.1651   245.6586 C5            1 RES     
    6018 C0        -184.1342  -146.9634   246.3709 C0            1 RES     
    6019 C5        -183.0619  -145.8581   246.7647 C5            1 RES     
    6020 C5        -183.0013  -145.3913   248.2611 C5            1 RES     
    6021 C5        -183.9822  -144.2357   248.6132 C5            1 RES     
    6022 C5        -183.5451  -142.8314   248.1330 C5            1 RES     
    6023 C5        -184.6580  -141.7710   248.2457 C5            1 RES     
    6024 C5        -185.0255  -141.3516   249.6777 C5            1 RES     
    6025 C5        -183.8896  -140.6618   250.4579 C5            1 RES     
    6026 C5        -183.3769  -139.3884   249.7778 C5            1 RES     
    6027 C5        -181.5337  -145.1177   248.7727 C5            1 RES     
    6028 C5        -180.6031  -144.2853   247.8481 C5            1 RES     
    6029 C5        -179.2695  -143.8549   248.4994 C5            1 RES     
    6030 C5        -178.3462  -145.0120   248.9299 C5            1 RES     
    6031 C5        -177.0003  -144.5238   249.5200 C5            1 RES     
    6032 C5        -176.0913  -143.8207   248.4879 C5            1 RES     
    6033 C5        -174.7547  -143.3203   249.0683 C5            1 RES     
    6034 C5        -173.8366  -144.4380   249.5627 C5            1 RES     
    6035 H6        -183.7878  -153.8320   238.1477 H6            1 RES     
    6036 H6        -184.9866  -154.2010   236.8647 H6            1 RES     
    6037 H6        -185.1179  -155.0205   238.4659 H6            1 RES     
    6038 H6        -185.5097  -151.9973   237.9218 H6            1 RES     
    6039 H6        -186.8113  -153.2122   238.1791 H6            1 RES     
    6040 H6        -186.4691  -151.9675   240.2318 H6            1 RES     
    6041 H6        -185.9750  -153.6800   240.4854 H6            1 RES     
    6042 H6        -184.1099  -151.2718   239.9478 H6            1 RES     
    6043 H6        -183.5349  -152.9633   240.2237 H6            1 RES     
    6044 H6        -185.1931  -151.3133   242.1966 H6            1 RES     
    6045 H6        -184.5245  -152.9639   242.5110 H6            1 RES     
    6046 H6        -182.1687  -152.0123   242.2081 H6            1 RES     
    6047 H6        -182.9082  -150.4011   241.9153 H6            1 RES     
    6048 H6        -182.9150  -151.9678   244.5932 H6            1 RES     
    6049 H6        -182.0576  -150.4413   244.1568 H6            1 RES     
    6050 H6        -185.0808  -150.9339   244.4001 H6            1 RES     
    6051 H6        -184.4185  -149.4809   243.6331 H6            1 RES     
    6052 H6        -185.0917  -149.0645   245.8021 H6            1 RES     
    6053 H6        -183.3787  -151.0998   247.1020 H6            1 RES     
    6054 H6        -183.9739  -149.6301   247.9712 H6            1 RES     
    6055 H6        -186.2271  -149.9631   247.3435 H6            1 RES     
    6056 H6        -185.7951  -151.4729   246.3771 H6            1 RES     
    6057 H6        -186.0769  -151.1203   249.3987 H6            1 RES     
    6058 H6        -185.6325  -152.6605   248.5430 H6            1 RES     
    6059 H6        -188.1762  -150.9532   247.8984 H6            1 RES     
    6060 H6        -187.6867  -152.4887   247.1140 H6            1 RES     
    6061 H6        -188.0617  -153.7102   249.2603 H6            1 RES     
    6062 H6        -189.5062  -152.9105   248.5414 H6            1 RES     
    6063 H6        -189.3422  -151.0076   250.1004 H6            1 RES     
    6064 H6        -187.9124  -151.7776   250.9096 H6            1 RES     
    6065 H6        -189.5321  -152.5807   250.9519 H6            1 RES     
    6066 H6        -183.2749  -147.8346   244.6034 H6            1 RES     
    6067 H6        -182.3671  -148.3761   246.0432 H6            1 RES     
    6068 H6        -182.0850  -146.3656   246.6527 H6            1 RES     
    6069 H6        -182.9824  -145.0323   246.0301 H6            1 RES     
    6070 H6        -183.3436  -146.2616   248.8654 H6            1 RES     
    6071 H6        -184.9754  -144.5084   248.1993 H6            1 RES     
    6072 H6        -184.0915  -144.1814   249.7179 H6            1 RES     
    6073 H6        -182.6545  -142.4841   248.6903 H6            1 RES     
    6074 H6        -183.2489  -142.8869   247.0686 H6            1 RES     
    6075 H6        -184.3457  -140.8702   247.6793 H6            1 RES     
    6076 H6        -185.5769  -142.1454   247.7497 H6            1 RES     
    6077 H6        -185.3770  -142.2374   250.2471 H6            1 RES     
    6078 H6        -185.8763  -140.6387   249.6106 H6            1 RES     
    6079 H6        -183.0424  -141.3600   250.6176 H6            1 RES     
    6080 H6        -184.2881  -140.3819   251.4564 H6            1 RES     
    6081 H6        -184.2111  -138.6739   249.6109 H6            1 RES     
    6082 H6        -182.6161  -138.9027   250.4234 H6            1 RES     
    6083 H6        -182.8909  -139.6186   248.8072 H6            1 RES     
    6084 H6        -181.0284  -146.0999   248.8963 H6            1 RES     
    6085 H6        -181.5973  -144.6572   249.7826 H6            1 RES     
    6086 H6        -181.0816  -143.3489   247.5317 H6            1 RES     
    6087 H6        -180.3856  -144.8563   246.9203 H6            1 RES     
    6088 H6        -178.7461  -143.2366   247.7433 H6            1 RES     
    6089 H6        -179.4833  -143.2119   249.3818 H6            1 RES     
    6090 H6        -178.1410  -145.6810   248.0661 H6            1 RES     
    6091 H6        -178.8641  -145.5998   249.7148 H6            1 RES     
    6092 H6        -177.1939  -143.8438   250.3784 H6            1 RES     
    6093 H6        -176.4657  -145.4197   249.9046 H6            1 RES     
    6094 H6        -176.6097  -142.9256   248.0906 H6            1 RES     
    6095 H6        -175.8858  -144.5107   247.6406 H6            1 RES     
    6096 H6        -174.2154  -142.7753   248.2621 H6            1 RES     
    6097 H6        -174.9464  -142.6046   249.8966 H6            1 RES     
    6098 H6        -174.2893  -144.9824   250.4155 H6            1 RES     
    6099 H6        -172.8777  -143.9970   249.9106 H6            1 RES     
    6100 H6        -173.6175  -145.1506   248.7395 H6            1 RES     
    6101 C0        -189.8232  -158.2892   242.9414 C0            1 RES     
    6102 C0        -190.9937  -158.7484   241.9811 C0            1 RES     
    6103 C0        -191.2821  -157.7851   241.0742 C0            1 RES     
    6104 S1        -192.4897  -158.2059   239.9873 S1            1 RES     
    6105 C0        -192.7061  -159.7474   240.6686 C0            1 RES     
    6106 C0        -191.8724  -159.8486   241.7917 C0            1 RES     
    6107 C0        -190.5156  -156.6275   241.3509 C0            1 RES     
    6108 C0        -189.7311  -156.8671   242.3771 C0            1 RES     
    6109 C0        -189.0892  -155.6630   242.8246 C0            1 RES     
    6110 C0        -189.4753  -154.5693   242.0713 C0            1 RES     
    6111 S1        -190.5923  -154.9632   240.7141 S1            1 RES     
    6112 H2        -191.8953  -160.7169   242.3979 H2            1 RES     
    6113 H2        -188.5145  -155.5992   243.6998 H2            1 RES     
    6114 N3        -194.1335  -163.2208   240.0852 N3            1 RES     
    6115 C0        -193.4380  -162.1791   240.6220 C0            1 RES     
    6116 C0        -193.5581  -160.8582   240.1140 C0            1 RES     
    6117 C0        -194.4482  -160.6847   239.0322 C0            1 RES     
    6118 N3        -194.6985  -159.4980   238.4201 N3            1 RES     
    6119 S1        -195.7952  -159.9166   237.2591 S1            1 RES     
    6120 N3        -195.9886  -161.5413   237.4604 N3            1 RES     
    6121 C0        -195.1572  -161.8031   238.5035 C0            1 RES     
    6122 C0        -194.9839  -163.0666   239.0409 C0            1 RES     
    6123 H4        -192.7691  -162.4067   241.4258 H4            1 RES     
    6124 C5        -191.8482  -163.7660   233.6798 C5            1 RES     
    6125 C5        -192.4163  -162.6474   234.5532 C5            1 RES     
    6126 C5        -192.0865  -162.8196   236.0457 C5            1 RES     
    6127 C5        -190.5836  -162.6985   236.3579 C5            1 RES     
    6128 C5        -190.3242  -162.8371   237.8658 C5            1 RES     
    6129 C5        -188.8422  -162.5693   238.2089 C5            1 RES     
    6130 C5        -188.4990  -162.6332   239.7210 C5            1 RES     
    6131 C5        -189.4594  -161.7618   240.5321 C5            1 RES     
    6132 C5        -189.0424  -161.3695   241.9720 C5            1 RES     
    6133 C5        -189.0238  -162.4732   243.0989 C5            1 RES     
    6134 C5        -190.5085  -162.7970   243.4237 C5            1 RES     
    6135 C5        -191.0558  -163.7577   244.4860 C5            1 RES     
    6136 C5        -192.6106  -163.6334   244.3662 C5            1 RES     
    6137 C5        -193.4735  -164.4762   245.3037 C5            1 RES     
    6138 C5        -193.4193  -164.0054   246.7517 C5            1 RES     
    6139 C5        -188.0337  -160.2119   241.9919 C5            1 RES     
    6140 C0        -188.3920  -159.1023   243.0636 C0            1 RES     
    6141 C5        -187.0621  -158.3275   243.4609 C5            1 RES     
    6142 C5        -186.6829  -158.2476   244.9809 C5            1 RES     
    6143 C5        -187.3312  -157.0554   245.7423 C5            1 RES     
    6144 C5        -186.6799  -155.6761   245.4832 C5            1 RES     
    6145 C5        -187.5113  -154.4948   246.0208 C5            1 RES     
    6146 C5        -187.5650  -154.3699   247.5516 C5            1 RES     
    6147 C5        -186.2055  -154.0951   248.2230 C5            1 RES     
    6148 C5        -185.5387  -152.8067   247.7309 C5            1 RES     
    6149 C5        -185.1317  -158.3648   245.2461 C5            1 RES     
    6150 C5        -184.1917  -157.5127   244.3493 C5            1 RES     
    6151 C5        -182.7157  -157.4898   244.8063 C5            1 RES     
    6152 C5        -182.0078  -158.8593   244.8069 C5            1 RES     
    6153 C5        -180.5166  -158.7686   245.2146 C5            1 RES     
    6154 C5        -179.6409  -158.0108   244.1923 C5            1 RES     
    6155 C5        -178.1576  -157.9047   244.5950 C5            1 RES     
    6156 C5        -177.4368  -159.2508   244.6660 C5            1 RES     
    6157 H6        -190.7399  -163.7722   233.7042 H6            1 RES     
    6158 H6        -192.1659  -163.6101   232.6273 H6            1 RES     
    6159 H6        -192.2313  -164.7505   234.0230 H6            1 RES     
    6160 H6        -192.0440  -161.6641   234.1912 H6            1 RES     
    6161 H6        -193.5225  -162.6581   234.4406 H6            1 RES     
    6162 H6        -192.6228  -162.0163   236.5991 H6            1 RES     
    6163 H6        -192.4743  -163.7994   236.3991 H6            1 RES     
    6164 H6        -190.2380  -161.6973   236.0153 H6            1 RES     
    6165 H6        -190.0034  -163.4796   235.8255 H6            1 RES     
    6166 H6        -190.9607  -162.0815   238.3737 H6            1 RES     
    6167 H6        -190.6213  -163.8503   238.2113 H6            1 RES     
    6168 H6        -188.1878  -163.2817   237.6621 H6            1 RES     
    6169 H6        -188.6008  -161.5431   237.8509 H6            1 RES     
    6170 H6        -188.5467  -163.6751   240.1043 H6            1 RES     
    6171 H6        -187.4569  -162.2630   239.8315 H6            1 RES     
    6172 H6        -190.4457  -162.2621   240.5449 H6            1 RES     
    6173 H6        -189.6089  -160.8076   239.9772 H6            1 RES     
    6174 H6        -189.8497  -160.8071   242.2736 H6            1 RES     
    6175 H6        -188.4384  -163.3605   242.7786 H6            1 RES     
    6176 H6        -188.5707  -162.0585   244.0264 H6            1 RES     
    6177 H6        -190.9104  -161.8330   243.7884 H6            1 RES     
    6178 H6        -190.9587  -163.1217   242.4704 H6            1 RES     
    6179 H6        -190.7092  -163.4531   245.4972 H6            1 RES     
    6180 H6        -190.7355  -164.7994   244.2769 H6            1 RES     
    6181 H6        -192.9222  -162.5696   244.4936 H6            1 RES     
    6182 H6        -192.8935  -163.9360   243.3340 H6            1 RES     
    6183 H6        -193.1997  -165.5473   245.2180 H6            1 RES     
    6184 H6        -194.5299  -164.3595   244.9678 H6            1 RES     
    6185 H6        -193.7346  -162.9404   246.8204 H6            1 RES     
    6186 H6        -192.3989  -164.1186   247.1662 H6            1 RES     
    6187 H6        -194.1284  -164.6125   247.3542 H6            1 RES     
    6188 H6        -188.0095  -159.6653   241.0244 H6            1 RES     
    6189 H6        -187.0359  -160.6837   242.1223 H6            1 RES     
    6190 H6        -186.2438  -158.9569   243.0625 H6            1 RES     
    6191 H6        -186.9175  -157.3780   242.9084 H6            1 RES     
    6192 H6        -187.1101  -159.1628   245.4496 H6            1 RES     
    6193 H6        -188.4097  -157.0437   245.4800 H6            1 RES     
    6194 H6        -187.2619  -157.2468   246.8350 H6            1 RES     
    6195 H6        -185.6633  -155.6326   245.9181 H6            1 RES     
    6196 H6        -186.5629  -155.5281   244.3933 H6            1 RES     
    6197 H6        -187.1009  -153.5543   245.6005 H6            1 RES     
    6198 H6        -188.5519  -154.5739   245.6447 H6            1 RES     
    6199 H6        -188.0097  -155.2900   247.9854 H6            1 RES     
    6200 H6        -188.2442  -153.5239   247.7955 H6            1 RES     
    6201 H6        -185.5130  -154.9485   248.0717 H6            1 RES     
    6202 H6        -186.3831  -153.9951   249.3151 H6            1 RES     
    6203 H6        -186.2163  -151.9382   247.8762 H6            1 RES     
    6204 H6        -184.6049  -152.6292   248.3036 H6            1 RES     
    6205 H6        -185.2620  -152.8811   246.6590 H6            1 RES     
    6206 H6        -184.8353  -159.4210   245.0679 H6            1 RES     
    6207 H6        -184.9455  -158.1535   246.3216 H6            1 RES     
    6208 H6        -184.5003  -156.4591   244.3279 H6            1 RES     
    6209 H6        -184.2407  -157.8760   243.3006 H6            1 RES     
    6210 H6        -182.1898  -156.8110   244.1058 H6            1 RES     
    6211 H6        -182.6544  -157.0476   245.8253 H6            1 RES     
    6212 H6        -182.0801  -159.3292   243.8021 H6            1 RES     
    6213 H6        -182.5176  -159.5166   245.5403 H6            1 RES     
    6214 H6        -180.4314  -158.2890   246.2143 H6            1 RES     
    6215 H6        -180.1350  -159.8097   245.2989 H6            1 RES     
    6216 H6        -180.0089  -156.9705   244.0926 H6            1 RES     
    6217 H6        -179.7151  -158.5049   243.1990 H6            1 RES     
    6218 H6        -177.6394  -157.2869   243.8283 H6            1 RES     
    6219 H6        -178.0675  -157.3841   245.5726 H6            1 RES     
    6220 H6        -177.8643  -159.8942   245.4608 H6            1 RES     
    6221 H6        -176.3652  -159.0800   244.9057 H6            1 RES     
    6222 H6        -177.4991  -159.7745   243.6885 H6            1 RES     
    6223 C0        -196.8126  -168.1128   238.5574 C0            1 RES     
    6224 C0        -198.1828  -168.1185   237.7666 C0            1 RES     
    6225 C0        -198.3894  -166.9322   237.1473 C0            1 RES     
    6226 S1        -199.8061  -166.8646   236.2499 S1            1 RES     
    6227 C0        -200.2438  -168.4614   236.6318 C0            1 RES     
    6228 C0        -199.2945  -168.9708   237.5294 C0            1 RES     
    6229 C0        -197.3610  -166.0261   237.5015 C0            1 RES     
    6230 C0        -196.5031  -166.6361   238.2874 C0            1 RES     
    6231 C0        -195.5598  -165.7044   238.8389 C0            1 RES     
    6232 C0        -195.8102  -164.4128   238.4125 C0            1 RES     
    6233 S1        -197.1735  -164.2712   237.2436 S1            1 RES     
    6234 H2        -199.4126  -169.9404   237.9391 H2            1 RES     
    6235 H2        -194.8619  -165.9520   239.5819 H2            1 RES     
    6236 N3        -202.4506  -171.3915   235.6386 N3            1 RES     
    6237 C0        -201.4771  -170.6456   236.2325 C0            1 RES     
    6238 C0        -201.3859  -169.2418   236.0367 C0            1 RES     
    6239 C0        -202.3681  -168.6631   235.2042 C0            1 RES     
    6240 N3        -202.4466  -167.3401   234.9061 N3            1 RES     
    6241 S1        -203.7666  -167.2722   233.9167 S1            1 RES     
    6242 N3        -204.2709  -168.8385   233.8164 N3            1 RES     
    6243 C0        -203.3698  -169.4819   234.6050 C0            1 RES     
    6244 C0        -203.3932  -170.8472   234.8306 C0            1 RES     
    6245 H4        -200.7610  -171.1711   236.8296 H4            1 RES     
    6246 C5        -201.3063  -170.7910   228.9394 C5            1 RES     
    6247 C5        -201.4869  -169.8303   230.1146 C5            1 RES     
    6248 C5        -200.9848  -170.4071   231.4493 C5            1 RES     
    6249 C5        -199.4615  -170.6286   231.4852 C5            1 RES     
    6250 C5        -199.0180  -171.1647   232.8549 C5            1 RES     
    6251 C5        -197.4790  -171.2499   232.9544 C5            1 RES     
    6252 C5        -196.9378  -171.7303   234.3274 C5            1 RES     
    6253 C5        -197.5592  -170.9221   235.4678 C5            1 RES     
    6254 C5        -196.8601  -170.9624   236.8499 C5            1 RES     
    6255 C5        -196.9115  -172.2878   237.7037 C5            1 RES     
    6256 C5        -198.3665  -172.4144   238.2345 C5            1 RES     
    6257 C5        -198.9433  -173.4888   239.1639 C5            1 RES     
    6258 C5        -200.4359  -173.0693   239.3725 C5            1 RES     
    6259 C5        -201.3108  -173.9463   240.2666 C5            1 RES     
    6260 C5        -200.9439  -173.8499   241.7423 C5            1 RES     
    6261 C5        -195.6356  -170.0377   236.9112 C5            1 RES     
    6262 C0        -195.5862  -169.1694   238.2346 C0            1 RES     
    6263 C5        -194.0777  -168.7564   238.5185 C5            1 RES     
    6264 C5        -193.4699  -169.1075   239.9214 C5            1 RES     
    6265 C5        -193.7287  -168.0357   241.0195 C5            1 RES     
    6266 C5        -192.8433  -166.7704   240.9265 C5            1 RES     
    6267 C5        -193.3144  -165.6238   241.8426 C5            1 RES     
    6268 C5        -193.1134  -165.8587   243.3479 C5            1 RES     
    6269 C5        -191.6427  -165.9937   243.7877 C5            1 RES     
    6270 C5        -190.7961  -164.7625   243.4494 C5            1 RES     
    6271 C5        -191.9578  -169.5541   239.8545 C5            1 RES     
    6272 C5        -191.0005  -168.6915   238.9865 C5            1 RES     
    6273 C5        -189.5028  -169.0366   239.1468 C5            1 RES     
    6274 C5        -189.1117  -170.4692   238.7328 C5            1 RES     
    6275 C5        -187.5922  -170.7405   238.8565 C5            1 RES     
    6276 C5        -186.7356  -169.9270   237.8613 C5            1 RES     
    6277 C5        -185.2210  -170.1810   237.9848 C5            1 RES     
    6278 C5        -184.8022  -171.6103   237.6407 C5            1 RES     
    6279 H6        -200.2339  -170.9968   228.7489 H6            1 RES     
    6280 H6        -201.7353  -170.3364   228.0217 H6            1 RES     
    6281 H6        -201.8360  -171.7461   229.1421 H6            1 RES     
    6282 H6        -200.9708  -168.8699   229.8957 H6            1 RES     
    6283 H6        -202.5741  -169.6201   230.2167 H6            1 RES     
    6284 H6        -201.2493  -169.6771   232.2470 H6            1 RES     
    6285 H6        -201.5164  -171.3593   231.6636 H6            1 RES     
    6286 H6        -198.9644  -169.6512   231.2938 H6            1 RES     
    6287 H6        -199.1468  -171.3502   230.7038 H6            1 RES     
    6288 H6        -199.3961  -170.4520   233.6185 H6            1 RES     
    6289 H6        -199.4703  -172.1629   233.0374 H6            1 RES     
    6290 H6        -197.0800  -171.9152   232.1590 H6            1 RES     
    6291 H6        -197.0794  -170.2266   232.7733 H6            1 RES     
    6292 H6        -197.1498  -172.8084   234.4925 H6            1 RES     
    6293 H6        -195.8361  -171.5852   234.3088 H6            1 RES     
    6294 H6        -198.6167  -171.2305   235.5675 H6            1 RES     
    6295 H6        -197.5816  -169.8524   235.1579 H6            1 RES     
    6296 H6        -197.4748  -170.3553   237.4089 H6            1 RES     
    6297 H6        -196.5830  -173.1621   237.1032 H6            1 RES     
    6298 H6        -196.2483  -172.1913   238.5916 H6            1 RES     
    6299 H6        -198.4947  -171.5097   238.8579 H6            1 RES     
    6300 H6        -199.0113  -172.4194   237.3396 H6            1 RES     
    6301 H6        -198.3942  -173.4988   240.1302 H6            1 RES     
    6302 H6        -198.8875  -174.4905   238.6897 H6            1 RES     
    6303 H6        -200.4907  -172.0286   239.7712 H6            1 RES     
    6304 H6        -200.9262  -173.0638   238.3743 H6            1 RES     
    6305 H6        -201.2880  -174.9973   239.9139 H6            1 RES     
    6306 H6        -202.3556  -173.5700   240.1705 H6            1 RES     
    6307 H6        -201.0107  -172.7935   242.0854 H6            1 RES     
    6308 H6        -199.9216  -174.2352   241.9214 H6            1 RES     
    6309 H6        -201.6695  -174.4489   242.3332 H6            1 RES     
    6310 H6        -195.6383  -169.2899   236.0888 H6            1 RES     
    6311 H6        -194.7536  -170.6942   236.7489 H6            1 RES     
    6312 H6        -193.4809  -169.4064   237.8510 H6            1 RES     
    6313 H6        -193.8167  -167.7432   238.1537 H6            1 RES     
    6314 H6        -194.0089  -170.0185   240.2671 H6            1 RES     
    6315 H6        -194.8064  -167.7734   240.9770 H6            1 RES     
    6316 H6        -193.5413  -168.4903   242.0163 H6            1 RES     
    6317 H6        -191.7881  -167.0101   241.1578 H6            1 RES     
    6318 H6        -192.8597  -166.3905   239.8877 H6            1 RES     
    6319 H6        -192.7791  -164.6972   241.5517 H6            1 RES     
    6320 H6        -194.3917  -165.4278   241.6651 H6            1 RES     
    6321 H6        -193.6754  -166.7630   243.6625 H6            1 RES     
    6322 H6        -193.5525  -164.9894   243.8847 H6            1 RES     
    6323 H6        -191.1786  -166.8944   243.3358 H6            1 RES     
    6324 H6        -191.6315  -166.1265   244.8906 H6            1 RES     
    6325 H6        -191.2434  -163.8486   243.8957 H6            1 RES     
    6326 H6        -189.7719  -164.8925   243.8563 H6            1 RES     
    6327 H6        -190.7031  -164.6274   242.3521 H6            1 RES     
    6328 H6        -191.9237  -170.5728   239.4116 H6            1 RES     
    6329 H6        -191.5740  -169.6403   240.8944 H6            1 RES     
    6330 H6        -191.0765  -167.6257   239.2397 H6            1 RES     
    6331 H6        -191.2804  -168.7809   237.9152 H6            1 RES     
    6332 H6        -188.9534  -168.3138   238.5115 H6            1 RES     
    6333 H6        -189.1986  -168.8669   240.2033 H6            1 RES     
    6334 H6        -189.4304  -170.6669   237.6863 H6            1 RES     
    6335 H6        -189.6362  -171.1822   239.4009 H6            1 RES     
    6336 H6        -187.2597  -170.5347   239.8976 H6            1 RES     
    6337 H6        -187.4337  -171.8221   238.6524 H6            1 RES     
    6338 H6        -186.8834  -168.8449   238.0478 H6            1 RES     
    6339 H6        -187.0595  -170.1501   236.8212 H6            1 RES     
    6340 H6        -184.7019  -169.4994   237.2751 H6            1 RES     
    6341 H6        -184.8784  -169.9316   239.0121 H6            1 RES     
    6342 H6        -185.2352  -172.3390   238.3548 H6            1 RES     
    6343 H6        -183.6955  -171.6916   237.7000 H6            1 RES     
    6344 H6        -185.1186  -171.8675   236.6076 H6            1 RES     
    6345 C0        -206.3088  -175.2336   233.6902 C0            1 RES     
    6346 C0        -207.7501  -174.8112   233.1928 C0            1 RES     
    6347 C0        -207.7875  -173.4945   232.8793 C0            1 RES     
    6348 S1        -209.2736  -172.9686   232.3033 S1            1 RES     
    6349 C0        -209.9811  -174.5084   232.4289 C0            1 RES     
    6350 C0        -209.0407  -175.3746   233.0049 C0            1 RES     
    6351 C0        -206.5484  -172.8930   233.2064 C0            1 RES     
    6352 C0        -205.7343  -173.8128   233.6722 C0            1 RES     
    6353 C0        -204.5428  -173.2187   234.2103 C0            1 RES     
    6354 C0        -204.5716  -171.8395   234.1118 C0            1 RES     
    6355 S1        -206.0304  -171.1878   233.2800 S1            1 RES     
    6356 H2        -209.3014  -176.3777   233.2236 H2            1 RES     
    6357 H2        -203.8121  -173.7540   234.7393 H2            1 RES     
    6358 N3        -212.8851  -176.6856   231.3025 N3            1 RES     
    6359 C0        -211.6979  -176.2845   231.8377 C0            1 RES     
    6360 C0        -211.3387  -174.9127   231.9179 C0            1 RES     
    6361 C0        -212.2865  -173.9900   231.4249 C0            1 RES     
    6362 N3        -212.1236  -172.6414   231.4231 N3            1 RES     
    6363 S1        -213.5299  -172.1103   230.7402 S1            1 RES     
    6364 N3        -214.3664  -173.4947   230.4219 N3            1 RES     
    6365 C0        -213.5173  -174.4546   230.8752 C0            1 RES     
    6366 C0        -213.7983  -175.8086   230.8183 C0            1 RES     
    6367 H4        -211.0305  -177.0538   232.1666 H4            1 RES     
    6368 C5        -212.6412  -174.7209   224.7734 C5            1 RES     
    6369 C5        -212.4367  -174.0505   226.1319 C5            1 RES     
    6370 C5        -211.8780  -175.0065   227.1995 C5            1 RES     
    6371 C5        -210.4490  -175.4935   226.8966 C5            1 RES     
    6372 C5        -209.9329  -176.4088   228.0174 C5            1 RES     
    6373 C5        -208.4503  -176.7833   227.8003 C5            1 RES     
    6374 C5        -207.8276  -177.6632   228.9168 C5            1 RES     
    6375 C5        -208.0865  -177.0531   230.2954 C5            1 RES     
    6376 C5        -207.2158  -177.5423   231.4800 C5            1 RES     
    6377 C5        -207.4226  -179.0026   232.0398 C5            1 RES     
    6378 C5        -208.7763  -178.9949   232.8028 C5            1 RES     
    6379 C5        -209.4257  -180.1412   233.5872 C5            1 RES     
    6380 C5        -210.7465  -179.5286   234.1592 C5            1 RES     
    6381 C5        -211.6467  -180.4256   235.0070 C5            1 RES     
    6382 C5        -211.0539  -180.7483   236.3730 C5            1 RES     
    6383 C5        -205.8268  -176.8878   231.4920 C5            1 RES     
    6384 C0        -205.3980  -176.3812   232.9300 C0            1 RES     
    6385 C5        -203.8111  -176.3182   232.9971 C5            1 RES     
    6386 C5        -203.0920  -177.0933   234.1559 C5            1 RES     
    6387 C5        -202.9507  -176.2848   235.4779 C5            1 RES     
    6388 C5        -201.8390  -175.2088   235.4763 C5            1 RES     
    6389 C5        -201.9136  -174.2484   236.6796 C5            1 RES     
    6390 C5        -201.5474  -174.8656   238.0385 C5            1 RES     
    6391 C5        -200.0910  -175.3566   238.1510 C5            1 RES     
    6392 C5        -199.0604  -174.2481   237.9144 C5            1 RES     
    6393 C5        -201.7371  -177.7689   233.7106 C5            1 RES     
    6394 C5        -200.7565  -176.9062   232.8691 C5            1 RES     
    6395 C5        -199.3603  -177.5363   232.6653 C5            1 RES     
    6396 C5        -199.3500  -178.8752   231.9013 C5            1 RES     
    6397 C5        -197.9223  -179.4299   231.6732 C5            1 RES     
    6398 C5        -197.0683  -178.5662   230.7190 C5            1 RES     
    6399 C5        -195.6418  -179.1034   230.4952 C5            1 RES     
    6400 C5        -195.5935  -180.4606   229.7936 C5            1 RES     
    6401 H6        -211.6777  -175.0601   224.3428 H6            1 RES     
    6402 H6        -213.0939  -173.9934   224.0671 H6            1 RES     
    6403 H6        -213.3269  -175.5888   224.8752 H6            1 RES     
    6404 H6        -211.7654  -173.1713   226.0181 H6            1 RES     
    6405 H6        -213.4265  -173.6835   226.4812 H6            1 RES     
    6406 H6        -211.8596  -174.4523   228.1646 H6            1 RES     
    6407 H6        -212.5632  -175.8741   227.3134 H6            1 RES     
    6408 H6        -209.7884  -174.6012   226.8163 H6            1 RES     
    6409 H6        -210.4147  -176.0524   225.9391 H6            1 RES     
    6410 H6        -210.0330  -175.8430   228.9681 H6            1 RES     
    6411 H6        -210.5561  -177.3266   228.0763 H6            1 RES     
    6412 H6        -208.3247  -177.2999   226.8246 H6            1 RES     
    6413 H6        -207.8725  -175.8326   227.7580 H6            1 RES     
    6414 H6        -208.2384  -178.6954   228.8966 H6            1 RES     
    6415 H6        -206.7354  -177.7131   228.7171 H6            1 RES     
    6416 H6        -209.1588  -177.1862   230.5313 H6            1 RES     
    6417 H6        -207.9253  -175.9535   230.2199 H6            1 RES     
    6418 H6        -207.5972  -176.9874   232.2582 H6            1 RES     
    6419 H6        -207.3810  -179.7527   231.2224 H6            1 RES     
    6420 H6        -206.6305  -179.2374   232.7847 H6            1 RES     
    6421 H6        -208.6147  -178.2560   233.6101 H6            1 RES     
    6422 H6        -209.5322  -178.6740   232.0664 H6            1 RES     
    6423 H6        -208.7548  -180.4764   234.4075 H6            1 RES     
    6424 H6        -209.6559  -180.9954   232.9173 H6            1 RES     
    6425 H6        -210.5182  -178.6193   234.7643 H6            1 RES     
    6426 H6        -211.3663  -179.2003   233.2960 H6            1 RES     
    6427 H6        -211.9014  -181.3500   234.4501 H6            1 RES     
    6428 H6        -212.5895  -179.8603   235.1919 H6            1 RES     
    6429 H6        -210.8420  -179.8088   236.9303 H6            1 RES     
    6430 H6        -210.1226  -181.3380   236.2703 H6            1 RES     
    6431 H6        -211.7953  -181.3339   236.9577 H6            1 RES     
    6432 H6        -205.7910  -175.9775   230.8553 H6            1 RES     
    6433 H6        -205.1393  -177.6310   231.0334 H6            1 RES     
    6434 H6        -203.4723  -176.8852   232.1094 H6            1 RES     
    6435 H6        -203.3965  -175.3091   232.8029 H6            1 RES     
    6436 H6        -203.7561  -177.9515   234.4058 H6            1 RES     
    6437 H6        -203.9416  -175.8353   235.6973 H6            1 RES     
    6438 H6        -202.7196  -176.9888   236.3065 H6            1 RES     
    6439 H6        -200.8371  -175.6776   235.4471 H6            1 RES     
    6440 H6        -201.9271  -174.5962   234.5595 H6            1 RES     
    6441 H6        -201.2416  -173.3877   236.4862 H6            1 RES     
    6442 H6        -202.9382  -173.8303   236.7558 H6            1 RES     
    6443 H6        -202.2368  -175.7060   238.2643 H6            1 RES     
    6444 H6        -201.7063  -174.0856   238.8150 H6            1 RES     
    6445 H6        -199.9022  -176.1911   237.4448 H6            1 RES     
    6446 H6        -199.9457  -175.7474   239.1807 H6            1 RES     
    6447 H6        -199.2311  -173.4026   238.6147 H6            1 RES     
    6448 H6        -198.0390  -174.6483   238.0820 H6            1 RES     
    6449 H6        -199.1038  -173.8747   236.8705 H6            1 RES     
    6450 H6        -201.9873  -178.6431   233.0715 H6            1 RES     
    6451 H6        -201.2314  -178.1655   234.6178 H6            1 RES     
    6452 H6        -200.5648  -175.9347   233.3437 H6            1 RES     
    6453 H6        -201.2041  -176.6881   231.8761 H6            1 RES     
    6454 H6        -198.7692  -176.7909   232.0971 H6            1 RES     
    6455 H6        -198.8742  -177.6784   233.6559 H6            1 RES     
    6456 H6        -199.8546  -178.7597   230.9175 H6            1 RES     
    6457 H6        -199.9101  -179.6233   232.4982 H6            1 RES     
    6458 H6        -197.4035  -179.5387   232.6509 H6            1 RES     
    6459 H6        -198.0306  -180.4426   231.2267 H6            1 RES     
    6460 H6        -196.9522  -177.5507   231.1467 H6            1 RES     
    6461 H6        -197.5824  -178.4756   229.7372 H6            1 RES     
    6462 H6        -195.0996  -178.3744   229.8530 H6            1 RES     
    6463 H6        -195.1058  -179.1692   231.4665 H6            1 RES     
    6464 H6        -196.0619  -181.2507   230.4140 H6            1 RES     
    6465 H6        -194.5334  -180.7462   229.6216 H6            1 RES     
    6466 H6        -196.1067  -180.4056   228.8101 H6            1 RES     
    6467 C0        -217.7197  -179.2182   229.3902 C0            1 RES     
    6468 C0        -219.0946  -178.4441   229.2752 C0            1 RES     
    6469 C0        -218.8957  -177.1049   229.2494 C0            1 RES     
    6470 S1        -220.3035  -176.2054   229.0885 S1            1 RES     
    6471 C0        -221.2972  -177.5826   229.0315 C0            1 RES     
    6472 C0        -220.4891  -178.7118   229.2278 C0            1 RES     
    6473 C0        -217.5223  -176.8249   229.4481 C0            1 RES     
    6474 C0        -216.8639  -177.9569   229.5518 C0            1 RES     
    6475 C0        -215.5068  -177.7259   229.9607 C0            1 RES     
    6476 C0        -215.2545  -176.3796   230.1524 C0            1 RES     
    6477 S1        -216.6468  -175.3039   229.7664 S1            1 RES     
    6478 H2        -220.9229  -179.6764   229.2836 H2            1 RES     
    6479 H2        -214.8374  -178.4909   230.2195 H2            1 RES     
    6480 N3        -224.7331  -178.8868   228.0641 N3            1 RES     
    6481 C0        -223.4219  -178.8385   228.4318 C0            1 RES     
    6482 C0        -222.7701  -177.6098   228.7191 C0            1 RES     
    6483 C0        -223.5610  -176.4451   228.6155 C0            1 RES     
    6484 N3        -223.1157  -175.1847   228.8570 N3            1 RES     
    6485 S1        -224.4611  -174.2688   228.5793 S1            1 RES     
    6486 N3        -225.6117  -175.3694   228.1524 N3            1 RES     
    6487 C0        -224.9300  -176.5429   228.2293 C0            1 RES     
    6488 C0        -225.4990  -177.7739   227.9531 C0            1 RES     
    6489 H4        -222.8932  -179.7686   228.4630 H4            1 RES     
    6490 C5        -225.0421  -175.5012   222.1488 C5            1 RES     
    6491 C5        -224.5007  -175.2192   223.5502 C5            1 RES     
    6492 C5        -224.0078  -176.4841   224.2735 C5            1 RES     
    6493 C5        -222.7767  -177.1277   223.6093 C5            1 RES     
    6494 C5        -222.3084  -178.3588   224.4001 C5            1 RES     
    6495 C5        -220.9887  -178.9247   223.8309 C5            1 RES     
    6496 C5        -220.4105  -180.1397   224.6043 C5            1 RES     
    6497 C5        -220.3266  -179.8389   226.1017 C5            1 RES     
    6498 C5        -219.4153  -180.7402   226.9724 C5            1 RES     
    6499 C5        -219.8444  -182.2322   227.2523 C5            1 RES     
    6500 C5        -221.0373  -182.1690   228.2462 C5            1 RES     
    6501 C5        -221.7935  -183.3369   228.8905 C5            1 RES     
    6502 C5        -222.8536  -182.6562   229.8179 C5            1 RES     
    6503 C5        -223.7893  -183.5570   230.6220 C5            1 RES     
    6504 C5        -223.0841  -184.2937   231.7540 C5            1 RES     
    6505 C5        -217.9323  -180.3610   226.8506 C5            1 RES     
    6506 C0        -217.1977  -180.2935   228.2520 C0            1 RES     
    6507 C5        -215.6419  -180.5272   228.0248 C5            1 RES     
    6508 C5        -214.9419  -181.6690   228.8415 C5            1 RES     
    6509 C5        -214.4374  -181.2353   230.2482 C5            1 RES     
    6510 C5        -213.1342  -180.4014   230.2523 C5            1 RES     
    6511 C5        -212.8232  -179.7567   231.6174 C5            1 RES     
    6512 C5        -212.4008  -180.7333   232.7261 C5            1 RES     
    6513 C5        -211.0828  -181.4842   232.4547 C5            1 RES     
    6514 C5        -209.8856  -180.5493   232.2554 C5            1 RES     
    6515 C5        -213.8437  -182.4460   228.0166 C5            1 RES     
    6516 C5        -212.8367  -181.5935   227.1961 C5            1 RES     
    6517 C5        -211.6532  -182.3916   226.6043 C5            1 RES     
    6518 C5        -212.0422  -183.4912   225.5962 C5            1 RES     
    6519 C5        -210.8157  -184.2170   224.9904 C5            1 RES     
    6520 C5        -209.9474  -183.3146   224.0861 C5            1 RES     
    6521 C5        -208.7177  -184.0245   223.4883 C5            1 RES     
    6522 C5        -209.0648  -185.1631   222.5291 C5            1 RES     
    6523 H6        -224.2477  -175.8917   221.4815 H6            1 RES     
    6524 H6        -225.4281  -174.5591   221.7056 H6            1 RES     
    6525 H6        -225.8747  -176.2346   222.2015 H6            1 RES     
    6526 H6        -223.6813  -174.4697   223.4912 H6            1 RES     
    6527 H6        -225.3265  -174.7782   224.1503 H6            1 RES     
    6528 H6        -223.7290  -176.1871   225.3094 H6            1 RES     
    6529 H6        -224.8380  -177.2202   224.3377 H6            1 RES     
    6530 H6        -221.9599  -176.3718   223.5871 H6            1 RES     
    6531 H6        -223.0044  -177.4403   222.5697 H6            1 RES     
    6532 H6        -222.1436  -178.0266   225.4472 H6            1 RES     
    6533 H6        -223.0976  -179.1407   224.3894 H6            1 RES     
    6534 H6        -221.1219  -179.2085   222.7649 H6            1 RES     
    6535 H6        -220.2339  -178.1075   223.8730 H6            1 RES     
    6536 H6        -221.0308  -181.0492   224.4536 H6            1 RES     
    6537 H6        -219.3960  -180.3312   224.1928 H6            1 RES     
    6538 H6        -221.3557  -179.8344   226.5068 H6            1 RES     
    6539 H6        -219.9471  -178.7986   226.2221 H6            1 RES     
    6540 H6        -219.5501  -180.3281   227.9056 H6            1 RES     
    6541 H6        -220.0852  -182.7621   226.3068 H6            1 RES     
    6542 H6        -219.0196  -182.7722   227.7676 H6            1 RES     
    6543 H6        -220.6040  -181.6832   229.1406 H6            1 RES     
    6544 H6        -221.8075  -181.5552   227.7495 H6            1 RES     
    6545 H6        -221.0961  -183.9695   229.4811 H6            1 RES     
    6546 H6        -222.2973  -183.9536   228.1177 H6            1 RES     
    6547 H6        -222.3494  -181.9712   230.5400 H6            1 RES     
    6548 H6        -223.5094  -182.0289   229.1749 H6            1 RES     
    6549 H6        -224.3151  -184.2634   229.9480 H6            1 RES     
    6550 H6        -224.5516  -182.8958   231.0954 H6            1 RES     
    6551 H6        -222.5963  -183.5655   232.4396 H6            1 RES     
    6552 H6        -222.3259  -184.9958   231.3567 H6            1 RES     
    6553 H6        -223.8388  -184.8623   232.3384 H6            1 RES     
    6554 H6        -217.7973  -179.3461   226.4177 H6            1 RES     
    6555 H6        -217.4950  -181.0824   226.1271 H6            1 RES     
    6556 H6        -215.5669  -180.9174   226.9921 H6            1 RES     
    6557 H6        -215.0545  -179.5896   227.9641 H6            1 RES     
    6558 H6        -215.7297  -182.4320   229.0342 H6            1 RES     
    6559 H6        -215.2659  -180.6844   230.7405 H6            1 RES     
    6560 H6        -214.2423  -182.1452   230.8561 H6            1 RES     
    6561 H6        -212.2711  -181.0179   229.9366 H6            1 RES     
    6562 H6        -213.2238  -179.5829   229.5137 H6            1 RES     
    6563 H6        -212.0190  -179.0060   231.4780 H6            1 RES     
    6564 H6        -213.7121  -179.1958   231.9722 H6            1 RES     
    6565 H6        -213.2128  -181.4691   232.9042 H6            1 RES     
    6566 H6        -212.2729  -180.1447   233.6609 H6            1 RES     
    6567 H6        -211.1830  -182.1468   231.5706 H6            1 RES     
    6568 H6        -210.8738  -182.1276   233.3359 H6            1 RES     
    6569 H6        -209.7663  -179.8779   233.1326 H6            1 RES     
    6570 H6        -208.9600  -181.1503   232.1389 H6            1 RES     
    6571 H6        -210.0018  -179.9369   231.3375 H6            1 RES     
    6572 H6        -214.3665  -183.0855   227.2730 H6            1 RES     
    6573 H6        -213.3061  -183.1290   228.7097 H6            1 RES     
    6574 H6        -212.3738  -180.8115   227.8127 H6            1 RES     
    6575 H6        -213.3690  -181.0708   226.3730 H6            1 RES     
    6576 H6        -211.0069  -181.6479   226.0970 H6            1 RES     
    6577 H6        -211.0678  -182.8478   227.4331 H6            1 RES     
    6578 H6        -212.6500  -183.0587   224.7720 H6            1 RES     
    6579 H6        -212.6548  -184.2497   226.1245 H6            1 RES     
    6580 H6        -210.1936  -184.6441   225.8073 H6            1 RES     
    6581 H6        -211.2026  -185.0595   224.3764 H6            1 RES     
    6582 H6        -209.5551  -182.4663   224.6812 H6            1 RES     
    6583 H6        -210.5695  -182.9048   223.2607 H6            1 RES     
    6584 H6        -208.1332  -183.2704   222.9160 H6            1 RES     
    6585 H6        -208.0707  -184.4120   224.3046 H6            1 RES     
    6586 H6        -209.5943  -185.9833   223.0538 H6            1 RES     
    6587 H6        -208.1275  -185.5807   222.1025 H6            1 RES     
    6588 H6        -209.6938  -184.7870   221.6946 H6            1 RES     
    6589 C0        -230.2254  -180.0057   226.6405 C0            1 RES     
    6590 C0        -231.4047  -178.9980   226.9514 C0            1 RES     
    6591 C0        -230.9302  -177.7472   227.1610 C0            1 RES     
    6592 S1        -232.1212  -176.6030   227.4598 S1            1 RES     
    6593 C0        -233.3835  -177.7313   227.3155 C0            1 RES     
    6594 C0        -232.8155  -178.9983   227.1190 C0            1 RES     
    6595 C0        -229.5148  -177.7674   227.1453 C0            1 RES     
    6596 C0        -229.1056  -178.9889   226.8881 C0            1 RES     
    6597 C0        -227.6853  -179.1029   227.0673 C0            1 RES     
    6598 C0        -227.1256  -177.9063   227.4769 C0            1 RES     
    6599 S1        -228.2973  -176.5430   227.5924 S1            1 RES     
    6600 H2        -233.4324  -179.8573   227.0595 H2            1 RES     
    6601 H2        -227.1642  -180.0125   227.0316 H2            1 RES     
    6602 N3        -237.1231  -178.1460   226.7806 N3            1 RES     
    6603 C0        -235.7923  -178.4168   226.8918 C0            1 RES     
    6604 C0        -234.8578  -177.4251   227.2926 C0            1 RES     
    6605 C0        -235.3880  -176.1493   227.5819 C0            1 RES     
    6606 N3        -234.6530  -175.0803   227.9849 N3            1 RES     
    6607 S1        -235.7974  -173.9036   228.1629 S1            1 RES     
    6608 N3        -237.2068  -174.6524   227.7498 N3            1 RES     
    6609 C0        -236.7879  -175.9113   227.4540 C0            1 RES     
    6610 C0        -237.6413  -176.9221   227.0474 C0            1 RES     
    6611 H4        -235.4759  -179.4054   226.6309 H4            1 RES     
    6612 C5        -237.5717  -173.4519   221.8497 C5            1 RES     
    6613 C5        -236.7816  -173.6102   223.1487 C5            1 RES     
    6614 C5        -236.4691  -175.0769   223.4910 C5            1 RES     
    6615 C5        -235.5159  -175.7496   222.4862 C5            1 RES     
    6616 C5        -235.2099  -177.1957   222.9050 C5            1 RES     
    6617 C5        -234.1406  -177.8323   221.9901 C5            1 RES     
    6618 C5        -233.7276  -179.2781   222.3744 C5            1 RES     
    6619 C5        -233.3611  -179.3611   223.8571 C5            1 RES     
    6620 C5        -232.5452  -180.5887   224.3348 C5            1 RES     
    6621 C5        -233.2370  -182.0056   224.3822 C5            1 RES     
    6622 C5        -234.2286  -181.9724   225.5781 C5            1 RES     
    6623 C5        -235.1133  -183.1089   226.1041 C5            1 RES     
    6624 C5        -235.8545  -182.4932   227.3364 C5            1 RES     
    6625 C5        -236.8319  -183.3811   228.1047 C5            1 RES     
    6626 C5        -236.1411  -184.4773   228.9062 C5            1 RES     
    6627 C5        -231.0501  -180.4571   224.0105 C5            1 RES     
    6628 C0        -230.1192  -180.8542   225.2286 C0            1 RES     
    6629 C5        -228.7003  -181.2959   224.6644 C5            1 RES     
    6630 C5        -228.1478  -182.7034   225.0818 C5            1 RES     
    6631 C5        -227.3601  -182.7116   226.4238 C5            1 RES     
    6632 C5        -225.9228  -182.1440   226.3475 C5            1 RES     
    6633 C5        -225.2831  -181.9067   227.7296 C5            1 RES     
    6634 C5        -224.9202  -183.1772   228.5142 C5            1 RES     
    6635 C5        -223.8479  -184.0609   227.8479 C5            1 RES     
    6636 C5        -222.5215  -183.3300   227.6171 C5            1 RES     
    6637 C5        -227.3751  -183.4421   223.9210 C5            1 RES     
    6638 C5        -226.3417  -182.6090   223.1135 C5            1 RES     
    6639 C5        -225.4568  -183.4382   222.1558 C5            1 RES     
    6640 C5        -226.2163  -184.1813   221.0388 C5            1 RES     
    6641 C5        -225.2766  -184.9456   220.0741 C5            1 RES     
    6642 C5        -224.3788  -184.0207   219.2230 C5            1 RES     
    6643 C5        -223.4313  -184.7723   218.2685 C5            1 RES     
    6644 C5        -224.1514  -185.5715   217.1825 C5            1 RES     
    6645 H6        -236.9866  -173.8056   220.9771 H6            1 RES     
    6646 H6        -237.8085  -172.3789   221.6901 H6            1 RES     
    6647 H6        -238.5246  -174.0194   221.9108 H6            1 RES     
    6648 H6        -235.8389  -173.0235   223.0874 H6            1 RES     
    6649 H6        -237.3962  -173.1868   223.9730 H6            1 RES     
    6650 H6        -235.9834  -175.0879   224.4926 H6            1 RES     
    6651 H6        -237.4186  -175.6500   223.5623 H6            1 RES     
    6652 H6        -234.5689  -175.1651   222.4620 H6            1 RES     
    6653 H6        -235.9561  -175.7614   221.4682 H6            1 RES     
    6654 H6        -234.8252  -177.1558   223.9463 H6            1 RES     
    6655 H6        -236.1407  -177.8020   222.8870 H6            1 RES     
    6656 H6        -234.4873  -177.8269   220.9345 H6            1 RES     
    6657 H6        -233.2308  -177.1936   222.0520 H6            1 RES     
    6658 H6        -234.5432  -180.0027   222.1636 H6            1 RES     
    6659 H6        -232.8497  -179.5410   221.7457 H6            1 RES     
    6660 H6        -234.2941  -179.2728   224.4445 H6            1 RES     
    6661 H6        -232.7546  -178.4622   224.1116 H6            1 RES     
    6662 H6        -232.4494  -180.3930   225.3405 H6            1 RES     
    6663 H6        -233.7225  -182.2451   223.4128 H6            1 RES     
    6664 H6        -232.4798  -182.7884   224.6088 H6            1 RES     
    6665 H6        -233.5744  -181.7966   226.4526 H6            1 RES     
    6666 H6        -234.9146  -181.1331   225.3740 H6            1 RES     
    6667 H6        -234.4878  -183.9758   226.4086 H6            1 RES     
    6668 H6        -235.8458  -183.4264   225.3333 H6            1 RES     
    6669 H6        -235.1146  -182.0985   228.0724 H6            1 RES     
    6670 H6        -236.4488  -181.6263   226.9726 H6            1 RES     
    6671 H6        -237.5901  -183.8038   227.4147 H6            1 RES     
    6672 H6        -237.3568  -182.7282   228.8401 H6            1 RES     
    6673 H6        -235.4132  -184.0298   229.6191 H6            1 RES     
    6674 H6        -235.6177  -185.1866   228.2364 H6            1 RES     
    6675 H6        -236.9051  -185.0273   229.4964 H6            1 RES     
    6676 H6        -230.7667  -179.4082   223.7755 H6            1 RES     
    6677 H6        -230.8888  -181.0511   223.0851 H6            1 RES     
    6678 H6        -228.8639  -181.4365   223.5791 H6            1 RES     
    6679 H6        -227.9417  -180.4885   224.6843 H6            1 RES     
    6680 H6        -229.0431  -183.3403   225.2627 H6            1 RES     
    6681 H6        -227.9697  -182.1571   227.1676 H6            1 RES     
    6682 H6        -227.2764  -183.7595   226.7848 H6            1 RES     
    6683 H6        -225.2678  -182.8091   225.7533 H6            1 RES     
    6684 H6        -225.9436  -181.1708   225.8221 H6            1 RES     
    6685 H6        -224.3667  -181.2971   227.5942 H6            1 RES     
    6686 H6        -225.9692  -181.2995   228.3550 H6            1 RES     
    6687 H6        -225.8353  -183.7803   228.6912 H6            1 RES     
    6688 H6        -224.5328  -182.8592   229.5069 H6            1 RES     
    6689 H6        -224.2169  -184.4665   226.8835 H6            1 RES     
    6690 H6        -223.6535  -184.9216   228.5229 H6            1 RES     
    6691 H6        -222.1333  -182.9178   228.5731 H6            1 RES     
    6692 H6        -221.7734  -184.0386   227.2053 H6            1 RES     
    6693 H6        -222.6385  -182.5065   226.8828 H6            1 RES     
    6694 H6        -228.1265  -183.7851   223.1772 H6            1 RES     
    6695 H6        -226.8995  -184.3535   224.3443 H6            1 RES     
    6696 H6        -225.6366  -182.0895   223.7758 H6            1 RES     
    6697 H6        -226.8656  -181.8209   222.5318 H6            1 RES     
    6698 H6        -224.7487  -182.7204   221.6961 H6            1 RES     
    6699 H6        -224.8666  -184.1735   222.7463 H6            1 RES     
    6700 H6        -226.8326  -183.4659   220.4522 H6            1 RES     
    6701 H6        -226.8919  -184.9243   221.5092 H6            1 RES     
    6702 H6        -224.6464  -185.6567   220.6521 H6            1 RES     
    6703 H6        -225.9209  -185.5370   219.3873 H6            1 RES     
    6704 H6        -223.7308  -183.4202   219.8917 H6            1 RES     
    6705 H6        -225.0138  -183.3241   218.6332 H6            1 RES     
    6706 H6        -222.7902  -184.0182   217.7604 H6            1 RES     
    6707 H6        -222.7688  -185.4497   218.8492 H6            1 RES     
    6708 H6        -224.7605  -186.3871   217.6210 H6            1 RES     
    6709 H6        -223.3986  -186.0333   216.5081 H6            1 RES     
    6710 H6        -224.8018  -184.9038   216.5785 H6            1 RES     
    6711 C0        -242.8762  -177.9151   226.2399 C0            1 RES     
    6712 C0        -243.7537  -176.8197   226.9698 C0            1 RES     
    6713 C0        -242.9973  -175.7575   227.3346 C0            1 RES     
    6714 S1        -243.8588  -174.5267   228.0829 S1            1 RES     
    6715 C0        -245.3402  -175.3494   227.9569 C0            1 RES     
    6716 C0        -245.0914  -176.6127   227.4014 C0            1 RES     
    6717 C0        -241.6371  -176.0208   227.0438 C0            1 RES     
    6718 C0        -241.5409  -177.1985   226.4697 C0            1 RES     
    6719 C0        -240.1673  -177.5986   226.3461 C0            1 RES     
    6720 C0        -239.3106  -176.6507   226.8755 C0            1 RES     
    6721 S1        -240.1337  -175.1704   227.4887 S1            1 RES     
    6722 H2        -245.8795  -177.3113   227.2878 H2            1 RES     
    6723 H2        -239.8637  -178.5505   226.0266 H2            1 RES     
    6724 N3        -249.1190  -174.9637   228.0765 N3            1 RES     
    6725 C0        -247.8753  -175.4819   227.8728 C0            1 RES     
    6726 C0        -246.7018  -174.7932   228.2802 C0            1 RES     
    6727 C0        -246.8983  -173.5501   228.9193 C0            1 RES     
    6728 N3        -245.9006  -172.7531   229.3827 N3            1 RES     
    6729 S1        -246.7281  -171.4708   230.0127 S1            1 RES     
    6730 N3        -248.3101  -171.8412   229.7342 N3            1 RES     
    6731 C0        -248.2183  -173.0471   229.1136 C0            1 RES     
    6732 C0        -249.3184  -173.7670   228.6812 C0            1 RES     
    6733 H4        -247.8196  -176.4199   227.3604 H4            1 RES     
    6734 C5        -249.2773  -169.2288   224.3840 C5            1 RES     
    6735 C5        -248.3563  -169.8269   225.4473 C5            1 RES     
    6736 C5        -248.3174  -171.3643   225.4175 C5            1 RES     
    6737 C5        -247.6891  -171.9353   224.1329 C5            1 RES     
    6738 C5        -247.6409  -173.4701   224.1819 C5            1 RES     
    6739 C5        -246.8794  -174.0482   222.9688 C5            1 RES     
    6740 C5        -246.7328  -175.5932   222.9642 C5            1 RES     
    6741 C5        -246.1776  -176.0890   224.3006 C5            1 RES     
    6742 C5        -245.5815  -177.5182   224.3527 C5            1 RES     
    6743 C5        -246.5454  -178.7621   224.2426 C5            1 RES     
    6744 C5        -247.3192  -178.8409   225.5878 C5            1 RES     
    6745 C5        -248.3387  -179.8968   226.0313 C5            1 RES     
    6746 C5        -248.7409  -179.4714   227.4820 C5            1 RES     
    6747 C5        -249.7610  -180.3311   228.2264 C5            1 RES     
    6748 C5        -249.2098  -181.6899   228.6403 C5            1 RES     
    6749 C5        -244.1575  -177.5772   223.7813 C5            1 RES     
    6750 C0        -243.1635  -178.4090   224.6914 C0            1 RES     
    6751 C5        -241.9710  -178.9455   223.7875 C5            1 RES     
    6752 C5        -241.6766  -180.4862   223.7957 C5            1 RES     
    6753 C5        -240.7196  -180.9507   224.9314 C5            1 RES     
    6754 C5        -239.2216  -180.6420   224.6978 C5            1 RES     
    6755 C5        -238.3490  -180.8556   225.9502 C5            1 RES     
    6756 C5        -238.1541  -182.3194   226.3753 C5            1 RES     
    6757 C5        -237.4059  -183.1933   225.3500 C5            1 RES     
    6758 C5        -236.0029  -182.6724   225.0227 C5            1 RES     
    6759 C5        -241.2598  -181.0516   222.3826 C5            1 RES     
    6760 C5        -240.2031  -180.2447   221.5786 C5            1 RES     
    6761 C5        -239.6672  -180.9644   220.3206 C5            1 RES     
    6762 C5        -240.7245  -181.2761   219.2427 C5            1 RES     
    6763 C5        -240.1228  -181.9418   217.9806 C5            1 RES     
    6764 C5        -239.1839  -181.0130   217.1795 C5            1 RES     
    6765 C5        -238.5705  -181.6704   215.9283 C5            1 RES     
    6766 C5        -239.5971  -182.0499   214.8612 C5            1 RES     
    6767 H6        -248.9168  -169.4619   223.3620 H6            1 RES     
    6768 H6        -249.3003  -168.1241   224.4945 H6            1 RES     
    6769 H6        -250.3098  -169.6186   224.5100 H6            1 RES     
    6770 H6        -247.3297  -169.4169   225.3269 H6            1 RES     
    6771 H6        -248.7376  -169.5106   226.4428 H6            1 RES     
    6772 H6        -247.7029  -171.6978   226.2836 H6            1 RES     
    6773 H6        -249.3463  -171.7626   225.5514 H6            1 RES     
    6774 H6        -246.6533  -171.5369   224.0469 H6            1 RES     
    6775 H6        -248.2671  -171.6277   223.2376 H6            1 RES     
    6776 H6        -247.1070  -173.7467   225.1160 H6            1 RES     
    6777 H6        -248.6719  -173.8821   224.2199 H6            1 RES     
    6778 H6        -247.3690  -173.7316   222.0230 H6            1 RES     
    6779 H6        -245.8552  -173.6120   222.9836 H6            1 RES     
    6780 H6        -247.7064  -176.0926   222.7709 H6            1 RES     
    6781 H6        -246.0340  -175.8488   222.1387 H6            1 RES     
    6782 H6        -246.9730  -175.9808   225.0615 H6            1 RES     
    6783 H6        -245.3622  -175.3967   224.6115 H6            1 RES     
    6784 H6        -245.2987  -177.5869   225.3397 H6            1 RES     
    6785 H6        -247.2085  -178.6756   223.3563 H6            1 RES     
    6786 H6        -245.9480  -179.6965   224.1555 H6            1 RES     
    6787 H6        -246.5206  -178.9952   226.3377 H6            1 RES     
    6788 H6        -247.8324  -177.8703   225.6943 H6            1 RES     
    6789 H6        -247.8749  -180.9069   226.0271 H6            1 RES     
    6790 H6        -249.2277  -179.8888   225.3672 H6            1 RES     
    6791 H6        -247.8333  -179.3987   228.1269 H6            1 RES     
    6792 H6        -249.1832  -178.4527   227.4232 H6            1 RES     
    6793 H6        -250.6854  -180.4383   227.6234 H6            1 RES     
    6794 H6        -250.0197  -179.7902   229.1660 H6            1 RES     
    6795 H6        -248.3059  -181.5592   229.2761 H6            1 RES     
    6796 H6        -248.9548  -182.3001   227.7524 H6            1 RES     
    6797 H6        -249.9779  -182.2218   229.2415 H6            1 RES     
    6798 H6        -243.6945  -176.5689   223.7147 H6            1 RES     
    6799 H6        -244.2654  -177.9532   222.7410 H6            1 RES     
    6800 H6        -242.3193  -178.7934   222.7483 H6            1 RES     
    6801 H6        -241.0629  -178.3116   223.8254 H6            1 RES     
    6802 H6        -242.6506  -180.9809   224.0116 H6            1 RES     
    6803 H6        -241.0798  -180.4909   225.8753 H6            1 RES     
    6804 H6        -240.8093  -182.0524   225.0486 H6            1 RES     
    6805 H6        -238.8189  -181.2510   223.8662 H6            1 RES     
    6806 H6        -239.1112  -179.5837   224.3954 H6            1 RES     
    6807 H6        -237.3537  -180.4015   225.7685 H6            1 RES     
    6808 H6        -238.7894  -180.3038   226.8059 H6            1 RES     
    6809 H6        -239.1405  -182.7775   226.5981 H6            1 RES     
    6810 H6        -237.5654  -182.3193   227.3188 H6            1 RES     
    6811 H6        -237.9914  -183.2871   224.4123 H6            1 RES     
    6812 H6        -237.3024  -184.2101   225.7855 H6            1 RES     
    6813 H6        -235.3987  -182.5736   225.9499 H6            1 RES     
    6814 H6        -235.4928  -183.3826   224.3395 H6            1 RES     
    6815 H6        -236.0484  -181.6906   224.5078 H6            1 RES     
    6816 H6        -242.1685  -181.0710   221.7429 H6            1 RES     
    6817 H6        -240.9328  -182.1062   222.5123 H6            1 RES     
    6818 H6        -239.3133  -180.0291   222.1850 H6            1 RES     
    6819 H6        -240.6265  -179.2618   221.2810 H6            1 RES     
    6820 H6        -238.8980  -180.2933   219.8894 H6            1 RES     
    6821 H6        -239.1672  -181.9106   220.6246 H6            1 RES     
    6822 H6        -241.2533  -180.3452   218.9434 H6            1 RES     
    6823 H6        -241.4662  -181.9794   219.6727 H6            1 RES     
    6824 H6        -239.5808  -182.8688   218.2699 H6            1 RES     
    6825 H6        -240.9728  -182.2308   217.3245 H6            1 RES     
    6826 H6        -238.3310  -180.7116   217.8193 H6            1 RES     
    6827 H6        -239.7354  -180.0961   216.8769 H6            1 RES     
    6828 H6        -237.8654  -180.9413   215.4709 H6            1 RES     
    6829 H6        -237.9897  -182.5715   216.2208 H6            1 RES     
    6830 H6        -240.2949  -182.8267   215.2330 H6            1 RES     
    6831 H6        -239.0684  -182.4627   213.9752 H6            1 RES     
    6832 H6        -240.1716  -181.1546   214.5420 H6            1 RES     
    6833 C0        -254.7051  -173.6072   228.7083 C0            1 RES     
    6834 C0        -255.2106  -172.5803   229.8005 C0            1 RES     
    6835 C0        -254.1992  -171.7845   230.2217 C0            1 RES     
    6836 S1        -254.6576  -170.6354   231.3559 S1            1 RES     
    6837 C0        -256.2826  -171.1322   231.3518 C0            1 RES     
    6838 C0        -256.3944  -172.2508   230.5136 C0            1 RES     
    6839 C0        -252.9849  -172.2052   229.6279 C0            1 RES     
    6840 C0        -253.2286  -173.2109   228.8186 C0            1 RES     
    6841 C0        -252.0059  -173.8044   228.3549 C0            1 RES     
    6842 C0        -250.8979  -173.1745   228.8917 C0            1 RES     
    6843 S1        -251.2858  -171.7616   229.9397 S1            1 RES     
    6844 H2        -257.3214  -172.7533   230.4136 H2            1 RES     
    6845 H2        -251.9633  -174.6912   227.7962 H2            1 RES     
    6846 N3        -259.8315  -170.1304   232.2703 N3            1 RES     
    6847 C0        -258.7714  -170.7949   231.7306 C0            1 RES     
    6848 C0        -257.4308  -170.4392   232.0366 C0            1 RES     
    6849 C0        -257.2606  -169.3688   232.9410 C0            1 RES     
    6850 N3        -256.0584  -168.8921   233.3567 N3            1 RES     
    6851 S1        -256.4903  -167.6717   234.3813 S1            1 RES     
    6852 N3        -258.1383  -167.6824   234.3421 N3            1 RES     
    6853 C0        -258.3991  -168.7033   233.4832 C0            1 RES     
    6854 C0        -259.6791  -169.0957   233.1327 C0            1 RES     
    6855 H4        -258.9937  -171.5792   231.0371 H4            1 RES     
    6856 C5        -259.3043  -163.7460   229.9228 C5            1 RES     
    6857 C5        -258.3857  -164.7314   230.6452 C5            1 RES     
    6858 C5        -258.6811  -166.2000   230.2962 C5            1 RES     
    6859 C5        -258.3861  -166.5504   228.8261 C5            1 RES     
    6860 C5        -258.6602  -168.0370   228.5515 C5            1 RES     
    6861 C5        -258.2276  -168.4345   227.1231 C5            1 RES     
    6862 C5        -258.4169  -169.9353   226.7761 C5            1 RES     
    6863 C5        -257.7894  -170.8236   227.8516 C5            1 RES     
    6864 C5        -257.5114  -172.3060   227.4964 C5            1 RES     
    6865 C5        -258.7243  -173.2995   227.3225 C5            1 RES     
    6866 C5        -259.2897  -173.5589   228.7465 C5            1 RES     
    6867 C5        -260.4343  -174.4946   229.1529 C5            1 RES     
    6868 C5        -260.5176  -174.3624   230.7094 C5            1 RES     
    6869 C5        -261.5764  -175.1819   231.4449 C5            1 RES     
    6870 C5        -261.2734  -176.6751   231.4599 C5            1 RES     
    6871 C5        -256.2333  -172.4760   226.6625 C5            1 RES     
    6872 C0        -255.3168  -173.6610   227.1762 C0            1 RES     
    6873 C5        -254.4134  -174.1676   225.9705 C5            1 RES     
    6874 C5        -254.4571  -175.6933   225.6083 C5            1 RES     
    6875 C5        -253.4645  -176.5744   226.4204 C5            1 RES     
    6876 C5        -251.9865  -176.4863   225.9715 C5            1 RES     
    6877 C5        -251.0045  -177.1406   226.9631 C5            1 RES     
    6878 C5        -251.0663  -178.6744   227.0359 C5            1 RES     
    6879 C5        -250.6820  -179.3968   225.7300 C5            1 RES     
    6880 C5        -249.2642  -179.0670   225.2526 C5            1 RES     
    6881 C5        -254.3842  -175.9707   224.0565 C5            1 RES     
    6882 C5        -253.3101  -175.1939   223.2461 C5            1 RES     
    6883 C5        -253.1322  -175.6765   221.7889 C5            1 RES     
    6884 C5        -254.3790  -175.5331   220.8935 C5            1 RES     
    6885 C5        -254.1266  -175.9747   219.4309 C5            1 RES     
    6886 C5        -253.1398  -175.0614   218.6706 C5            1 RES     
    6887 C5        -252.8727  -175.4996   217.2179 C5            1 RES     
    6888 C5        -254.1028  -175.4290   216.3131 C5            1 RES     
    6889 H6        -259.1569  -163.7891   228.8249 H6            1 RES     
    6890 H6        -259.0741  -162.7128   230.2581 H6            1 RES     
    6891 H6        -260.3660  -163.9676   230.1625 H6            1 RES     
    6892 H6        -257.3245  -164.4908   230.4160 H6            1 RES     
    6893 H6        -258.5392  -164.5988   231.7385 H6            1 RES     
    6894 H6        -258.0310  -166.8321   230.9419 H6            1 RES     
    6895 H6        -259.7400  -166.4322   230.5411 H6            1 RES     
    6896 H6        -257.3134  -166.3308   228.6258 H6            1 RES     
    6897 H6        -259.0107  -165.9426   228.1400 H6            1 RES     
    6898 H6        -258.0658  -168.6166   229.2895 H6            1 RES     
    6899 H6        -259.7383  -168.2591   228.7019 H6            1 RES     
    6900 H6        -258.7725  -167.8216   226.3733 H6            1 RES     
    6901 H6        -257.1432  -168.2006   227.0295 H6            1 RES     
    6902 H6        -259.4924  -170.1961   226.6756 H6            1 RES     
    6903 H6        -257.9187  -170.1057   225.7973 H6            1 RES     
    6904 H6        -258.4219  -170.7617   228.7568 H6            1 RES     
    6905 H6        -256.8081  -170.3789   228.1345 H6            1 RES     
    6906 H6        -257.1072  -172.6556   228.3758 H6            1 RES     
    6907 H6        -259.4771  -172.8903   226.6164 H6            1 RES     
    6908 H6        -258.3600  -174.2762   226.9341 H6            1 RES     
    6909 H6        -258.4408  -174.0242   229.2817 H6            1 RES     
    6910 H6        -259.5621  -172.5670   229.1447 H6            1 RES     
    6911 H6        -260.2030  -175.5399   228.8543 H6            1 RES     
    6912 H6        -261.3892  -174.1735   228.6876 H6            1 RES     
    6913 H6        -259.5303  -174.6050   231.1693 H6            1 RES     
    6914 H6        -260.7357  -173.2975   230.9452 H6            1 RES     
    6915 H6        -262.5810  -174.9793   231.0216 H6            1 RES     
    6916 H6        -261.5718  -174.8430   232.5067 H6            1 RES     
    6917 H6        -260.2787  -176.8594   231.9235 H6            1 RES     
    6918 H6        -261.2887  -177.0918   230.4344 H6            1 RES     
    6919 H6        -262.0400  -177.1916   232.0763 H6            1 RES     
    6920 H6        -255.5805  -171.5778   226.7150 H6            1 RES     
    6921 H6        -256.5715  -172.5692   225.6079 H6            1 RES     
    6922 H6        -254.8707  -173.7144   225.0705 H6            1 RES     
    6923 H6        -253.3954  -173.7300   225.9616 H6            1 RES     
    6924 H6        -255.4715  -176.0467   225.9017 H6            1 RES     
    6925 H6        -253.5747  -176.2962   227.4893 H6            1 RES     
    6926 H6        -253.7692  -177.6391   226.3260 H6            1 RES     
    6927 H6        -251.8506  -176.9411   224.9719 H6            1 RES     
    6928 H6        -251.6984  -175.4226   225.8754 H6            1 RES     
    6929 H6        -249.9732  -176.8379   226.6900 H6            1 RES     
    6930 H6        -251.1855  -176.7397   227.9814 H6            1 RES     
    6931 H6        -252.0838  -178.9923   227.3458 H6            1 RES     
    6932 H6        -250.3585  -179.0015   227.8287 H6            1 RES     
    6933 H6        -251.4059  -179.1612   224.9230 H6            1 RES     
    6934 H6        -250.7350  -180.4899   225.9214 H6            1 RES     
    6935 H6        -248.5227  -179.2987   226.0469 H6            1 RES     
    6936 H6        -249.0242  -179.6727   224.3542 H6            1 RES     
    6937 H6        -249.1743  -177.9987   224.9668 H6            1 RES     
    6938 H6        -255.3603  -175.6782   223.6128 H6            1 RES     
    6939 H6        -254.2746  -177.0665   223.9036 H6            1 RES     
    6940 H6        -252.3152  -175.2877   223.7013 H6            1 RES     
    6941 H6        -253.5529  -174.1099   223.2417 H6            1 RES     
    6942 H6        -252.3096  -175.0676   221.3640 H6            1 RES     
    6943 H6        -252.8067  -176.7403   221.7923 H6            1 RES     
    6944 H6        -254.7350  -174.4800   220.8971 H6            1 RES     
    6945 H6        -255.1820  -176.1773   221.3056 H6            1 RES     
    6946 H6        -253.7586  -177.0240   219.4159 H6            1 RES     
    6947 H6        -255.1061  -175.9462   218.9052 H6            1 RES     
    6948 H6        -252.1573  -175.0747   219.1826 H6            1 RES     
    6949 H6        -253.5211  -174.0169   218.6725 H6            1 RES     
    6950 H6        -252.1036  -174.8179   216.7918 H6            1 RES     
    6951 H6        -252.4612  -176.5318   217.2039 H6            1 RES     
    6952 H6        -254.8877  -176.1373   216.6458 H6            1 RES     
    6953 H6        -253.8114  -175.7056   215.2770 H6            1 RES     
    6954 H6        -254.5134  -174.3971   216.2991 H6            1 RES     
    6955 C0        -264.8427  -168.0063   234.2248 C0            1 RES     
    6956 C0        -264.9501  -167.1960   235.5794 C0            1 RES     
    6957 C0        -263.7412  -166.7128   235.9518 C0            1 RES     
    6958 S1        -263.7707  -165.8041   237.3625 S1            1 RES     
    6959 C0        -265.4467  -165.9932   237.5692 C0            1 RES     
    6960 C0        -265.9175  -166.8433   236.5583 C0            1 RES     
    6961 C0        -262.7462  -167.1864   235.0630 C0            1 RES     
    6962 C0        -263.3159  -167.9124   234.1281 C0            1 RES     
    6963 C0        -262.3305  -168.5834   233.3274 C0            1 RES     
    6964 C0        -261.0466  -168.3030   233.7584 C0            1 RES     
    6965 S1        -260.9645  -167.1341   235.1266 S1            1 RES     
    6966 H2        -266.9349  -167.1373   236.5379 H2            1 RES     
    6967 H2        -262.5614  -169.3054   232.6024 H2            1 RES     
    6968 N3        -268.5240  -164.6327   239.3359 N3            1 RES     
    6969 C0        -267.7220  -165.3251   238.4791 C0            1 RES     
    6970 C0        -266.3062  -165.2927   238.5881 C0            1 RES     
    6971 C0        -265.7795  -164.5146   239.6416 C0            1 RES     
    6972 N3        -264.4553  -164.3684   239.9070 N3            1 RES     
    6973 S1        -264.4603  -163.3701   241.2220 S1            1 RES     
    6974 N3        -266.0598  -163.0825   241.4984 N3            1 RES     
    6975 C0        -266.6566  -163.8081   240.5160 C0            1 RES     
    6976 C0        -268.0283  -163.8757   240.3453 C0            1 RES     
    6977 H4        -268.2067  -165.8708   237.6963 H4            1 RES     
    6978 C5        -266.9973  -158.0674   238.2804 C5            1 RES     
    6979 C5        -266.2141  -159.3413   238.5971 C5            1 RES     
    6980 C5        -266.8648  -160.6099   238.0198 C5            1 RES     
    6981 C5        -266.8719  -160.6472   236.4805 C5            1 RES     
    6982 C5        -267.4949  -161.9543   235.9670 C5            1 RES     
    6983 C5        -267.3730  -162.0705   234.4316 C5            1 RES     
    6984 C5        -267.9278  -163.3889   233.8293 C5            1 RES     
    6985 C5        -267.3528  -164.6031   234.5607 C5            1 RES     
    6986 C5        -267.4536  -165.9837   233.8646 C5            1 RES     
    6987 C5        -268.8629  -166.6793   233.7282 C5            1 RES     
    6988 C5        -269.2540  -167.1663   235.1510 C5            1 RES     
    6989 C5        -270.4992  -167.9565   235.5704 C5            1 RES     
    6990 C5        -270.3214  -168.1853   237.1077 C5            1 RES     
    6991 C5        -271.4105  -168.9577   237.8502 C5            1 RES     
    6992 C5        -271.4347  -170.4410   237.5026 C5            1 RES     
    6993 C5        -266.3789  -166.1718   232.7842 C5            1 RES     
    6994 C0        -265.6712  -167.5866   232.8604 C0            1 RES     
    6995 C5        -265.0852  -167.9424   231.4262 C5            1 RES     
    6996 C5        -265.5069  -169.3064   230.7764 C5            1 RES     
    6997 C5        -264.6167  -170.5151   231.1863 C5            1 RES     
    6998 C5        -263.2369  -170.5830   230.4896 C5            1 RES     
    6999 C5        -262.2820  -171.6157   231.1200 C5            1 RES     
    7000 C5        -262.6587  -173.0877   230.8896 C5            1 RES     
    7001 C5        -262.6348  -173.5350   229.4151 C5            1 RES     
    7002 C5        -261.2658  -173.3547   228.7518 C5            1 RES     
    7003 C5        -265.7250  -169.2156   229.2161 C5            1 RES     
    7004 C5        -264.6414  -168.4689   228.3900 C5            1 RES     
    7005 C5        -264.7880  -168.6151   226.8587 C5            1 RES     
    7006 C5        -266.0936  -168.0470   226.2674 C5            1 RES     
    7007 C5        -266.1603  -168.1657   224.7249 C5            1 RES     
    7008 C5        -265.1245  -167.2853   223.9915 C5            1 RES     
    7009 C5        -265.1748  -167.4057   222.4563 C5            1 RES     
    7010 C5        -266.4812  -166.9079   221.8381 C5            1 RES     
    7011 H6        -267.0263  -157.8735   237.1893 H6            1 RES     
    7012 H6        -266.5047  -157.2002   238.7685 H6            1 RES     
    7013 H6        -268.0345  -158.1502   238.6692 H6            1 RES     
    7014 H6        -265.1718  -159.2428   238.2225 H6            1 RES     
    7015 H6        -266.1726  -159.4475   239.7033 H6            1 RES     
    7016 H6        -266.2767  -161.4810   238.3864 H6            1 RES     
    7017 H6        -267.9008  -160.7045   238.4109 H6            1 RES     
    7018 H6        -265.8186  -160.5776   236.1272 H6            1 RES     
    7019 H6        -267.4465  -159.7941   236.0654 H6            1 RES     
    7020 H6        -266.9357  -162.7875   236.4435 H6            1 RES     
    7021 H6        -268.5612  -162.0134   236.2730 H6            1 RES     
    7022 H6        -267.8789  -161.2114   233.9411 H6            1 RES     
    7023 H6        -266.2896  -162.0147   234.1813 H6            1 RES     
    7024 H6        -269.0369  -163.4259   233.8862 H6            1 RES     
    7025 H6        -267.6277  -163.4065   232.7594 H6            1 RES     
    7026 H6        -267.8167  -164.6482   235.5637 H6            1 RES     
    7027 H6        -266.2684  -164.4171   234.7346 H6            1 RES     
    7028 H6        -267.0081  -166.5974   234.5602 H6            1 RES     
    7029 H6        -269.6066  -165.9887   233.2781 H6            1 RES     
    7030 H6        -268.7771  -167.5840   233.0866 H6            1 RES     
    7031 H6        -268.4546  -167.8868   235.4073 H6            1 RES     
    7032 H6        -269.2463  -166.2655   235.7875 H6            1 RES     
    7033 H6        -270.5433  -168.9248   235.0266 H6            1 RES     
    7034 H6        -271.4214  -167.3719   235.3723 H6            1 RES     
    7035 H6        -269.3520  -168.6993   237.3104 H6            1 RES     
    7036 H6        -270.2697  -167.1857   237.5927 H6            1 RES     
    7037 H6        -272.3998  -168.4876   237.6778 H6            1 RES     
    7038 H6        -271.1768  -168.8869   238.9378 H6            1 RES     
    7039 H6        -270.4451  -170.9014   237.7193 H6            1 RES     
    7040 H6        -271.6900  -170.5928   236.4361 H6            1 RES     
    7041 H6        -272.1943  -170.9466   238.1363 H6            1 RES     
    7042 H6        -265.5488  -165.4404   232.8921 H6            1 RES     
    7043 H6        -266.8811  -165.9511   231.8176 H6            1 RES     
    7044 H6        -265.5629  -167.2155   230.7422 H6            1 RES     
    7045 H6        -264.0100  -167.7004   231.3114 H6            1 RES     
    7046 H6        -266.5186  -169.5361   231.1808 H6            1 RES     
    7047 H6        -264.5058  -170.4838   232.2903 H6            1 RES     
    7048 H6        -265.1525  -171.4565   230.9374 H6            1 RES     
    7049 H6        -263.3505  -170.8039   229.4113 H6            1 RES     
    7050 H6        -262.7456  -169.5943   230.5586 H6            1 RES     
    7051 H6        -261.2617  -171.4422   230.7215 H6            1 RES     
    7052 H6        -262.2207  -171.4428   232.2140 H6            1 RES     
    7053 H6        -263.6635  -173.2868   231.3177 H6            1 RES     
    7054 H6        -261.9280  -173.7124   231.4484 H6            1 RES     
    7055 H6        -263.4027  -172.9914   228.8272 H6            1 RES     
    7056 H6        -262.8914  -174.6155   229.3865 H6            1 RES     
    7057 H6        -260.4819  -173.8946   229.3250 H6            1 RES     
    7058 H6        -261.2961  -173.7620   227.7200 H6            1 RES     
    7059 H6        -260.9929  -172.2818   228.6775 H6            1 RES     
    7060 H6        -266.6706  -168.6598   229.0369 H6            1 RES     
    7061 H6        -265.8759  -170.2454   228.8252 H6            1 RES     
    7062 H6        -263.6335  -168.8409   228.6171 H6            1 RES     
    7063 H6        -264.6449  -167.3897   228.6530 H6            1 RES     
    7064 H6        -263.9263  -168.0764   226.4168 H6            1 RES     
    7065 H6        -264.7005  -169.6893   226.5830 H6            1 RES     
    7066 H6        -266.2118  -166.9794   226.5535 H6            1 RES     
    7067 H6        -266.9458  -168.6199   226.6860 H6            1 RES     
    7068 H6        -266.0314  -169.2292   224.4263 H6            1 RES     
    7069 H6        -267.1777  -167.8421   224.4140 H6            1 RES     
    7070 H6        -264.1029  -167.5917   224.2918 H6            1 RES     
    7071 H6        -265.2692  -166.2210   224.2791 H6            1 RES     
    7072 H6        -264.3493  -166.7878   222.0384 H6            1 RES     
    7073 H6        -265.0001  -168.4606   222.1538 H6            1 RES     
    7074 H6        -267.3414  -167.5263   222.1640 H6            1 RES     
    7075 H6        -266.4119  -166.9770   220.7311 H6            1 RES     
    7076 H6        -266.6593  -165.8467   222.1135 H6            1 RES     
    7077 C0        -272.6205  -162.1901   242.6064 C0            1 RES     
    7078 C0        -272.3510  -161.7188   244.0924 C0            1 RES     
    7079 C0        -271.0254  -161.5573   244.3163 C0            1 RES     
    7080 S1        -270.6513  -161.0190   245.8613 S1            1 RES     
    7081 C0        -272.2796  -160.9553   246.3429 C0            1 RES     
    7082 C0        -273.0653  -161.4450   245.2896 C0            1 RES     
    7083 C0        -270.2970  -161.9729   243.1757 C0            1 RES     
    7084 C0        -271.1404  -162.3447   242.2397 C0            1 RES     
    7085 C0        -270.4505  -162.9681   241.1453 C0            1 RES     
    7086 C0        -269.0871  -163.0275   241.3698 C0            1 RES     
    7087 S1        -268.5559  -162.2500   242.9054 S1            1 RES     
    7088 H2        -274.1136  -161.5429   245.4054 H2            1 RES     
    7089 H2        -270.9349  -163.4454   240.3466 H2            1 RES     
    7090 N3        -274.6997  -159.5363   248.9065 N3            1 RES     
    7091 C0        -274.1997  -160.1347   247.7890 C0            1 RES     
    7092 C0        -272.8095  -160.3775   247.6286 C0            1 RES     
    7093 C0        -271.9790  -159.9766   248.6974 C0            1 RES     
    7094 N3        -270.6298  -160.1319   248.7278 N3            1 RES     
    7095 S1        -270.2270  -159.4895   250.1945 S1            1 RES     
    7096 N3        -271.6694  -159.0002   250.8253 N3            1 RES     
    7097 C0        -272.5459  -159.3557   249.8489 C0            1 RES     
    7098 C0        -273.9101  -159.1395   249.9345 C0            1 RES     
    7099 H4        -274.9000  -160.3852   247.0195 H4            1 RES     
    7100 C5        -271.9782  -153.2799   248.9364 C5            1 RES     
    7101 C5        -271.4474  -154.7095   248.8309 C5            1 RES     
    7102 C5        -272.4321  -155.6706   248.1433 C5            1 RES     
    7103 C5        -272.6743  -155.3392   246.6592 C5            1 RES     
    7104 C5        -273.6310  -156.3570   246.0197 C5            1 RES     
    7105 C5        -273.7650  -156.1247   244.4985 C5            1 RES     
    7106 C5        -274.6714  -157.1441   243.7585 C5            1 RES     
    7107 C5        -274.2676  -158.5787   244.1032 C5            1 RES     
    7108 C5        -274.7628  -159.7148   243.1732 C5            1 RES     
    7109 C5        -276.2925  -160.1002   243.1711 C5            1 RES     
    7110 C5        -276.5641  -160.8351   244.5130 C5            1 RES     
    7111 C5        -277.8735  -161.4716   244.9938 C5            1 RES     
    7112 C5        -277.5237  -162.0866   246.3890 C5            1 RES     
    7113 C5        -278.6307  -162.8102   247.1536 C5            1 RES     
    7114 C5        -279.0224  -164.1406   246.5227 C5            1 RES     
    7115 C5        -273.9247  -159.8261   241.8914 C5            1 RES     
    7116 C0        -273.5324  -161.3198   241.5408 C0            1 RES     
    7117 C5        -273.2544  -161.4217   239.9790 C5            1 RES     
    7118 C5        -274.0492  -162.4968   239.1584 C5            1 RES     
    7119 C5        -273.3872  -163.9049   239.1351 C5            1 RES     
    7120 C5        -272.1722  -164.0459   238.1877 C5            1 RES     
    7121 C5        -271.3777  -165.3496   238.3995 C5            1 RES     
    7122 C5        -272.0901  -166.6352   237.9510 C5            1 RES     
    7123 C5        -272.3804  -166.7166   236.4397 C5            1 RES     
    7124 C5        -271.1178  -166.6265   235.5769 C5            1 RES     
    7125 C5        -274.4708  -162.0012   237.7208 C5            1 RES     
    7126 C5        -273.3869  -161.2813   236.8717 C5            1 RES     
    7127 C5        -273.7859  -161.0315   235.3999 C5            1 RES     
    7128 C5        -275.0125  -160.1197   235.1984 C5            1 RES     
    7129 C5        -275.3301  -159.8549   233.7061 C5            1 RES     
    7130 C5        -274.2501  -159.0209   232.9823 C5            1 RES     
    7131 C5        -274.5511  -158.7624   231.4936 C5            1 RES     
    7132 C5        -275.7976  -157.9111   231.2521 C5            1 RES     
    7133 H6        -272.1260  -152.8305   247.9339 H6            1 RES     
    7134 H6        -271.2451  -152.6536   249.4870 H6            1 RES     
    7135 H6        -272.9401  -153.2698   249.4918 H6            1 RES     
    7136 H6        -270.4751  -154.7089   248.2913 H6            1 RES     
    7137 H6        -271.2666  -155.0810   249.8633 H6            1 RES     
    7138 H6        -271.9962  -156.6929   248.2051 H6            1 RES     
    7139 H6        -273.3950  -155.6724   248.6983 H6            1 RES     
    7140 H6        -271.6945  -155.3732   246.1320 H6            1 RES     
    7141 H6        -273.1082  -154.3249   246.5446 H6            1 RES     
    7142 H6        -273.1988  -157.3643   246.2003 H6            1 RES     
    7143 H6        -274.6282  -156.2996   246.5061 H6            1 RES     
    7144 H6        -274.1424  -155.0987   244.2996 H6            1 RES     
    7145 H6        -272.7439  -156.2016   244.0618 H6            1 RES     
    7146 H6        -275.7419  -156.9988   244.0183 H6            1 RES     
    7147 H6        -274.5434  -156.9594   242.6700 H6            1 RES     
    7148 H6        -274.5770  -158.7788   245.1460 H6            1 RES     
    7149 H6        -273.1550  -158.6322   244.0999 H6            1 RES     
    7150 H6        -274.3610  -160.5444   243.6306 H6            1 RES     
    7151 H6        -276.9296  -159.2032   243.0222 H6            1 RES     
    7152 H6        -276.4978  -160.8272   242.3545 H6            1 RES     
    7153 H6        -275.9082  -161.7243   244.4591 H6            1 RES     
    7154 H6        -276.2701  -160.1269   245.3060 H6            1 RES     
    7155 H6        -278.2033  -162.2600   244.2831 H6            1 RES     
    7156 H6        -278.6684  -160.7046   245.0995 H6            1 RES     
    7157 H6        -276.6674  -162.7956   246.2930 H6            1 RES     
    7158 H6        -277.1885  -161.2558   247.0482 H6            1 RES     
    7159 H6        -279.5111  -162.1469   247.2736 H6            1 RES     
    7160 H6        -278.2292  -163.0419   248.1674 H6            1 RES     
    7161 H6        -278.1332  -164.8053   246.4471 H6            1 RES     
    7162 H6        -279.4590  -163.9877   245.5168 H6            1 RES     
    7163 H6        -279.7704  -164.6413   247.1740 H6            1 RES     
    7164 H6        -272.9510  -159.2983   241.9846 H6            1 RES     
    7165 H6        -274.5054  -159.2976   241.1047 H6            1 RES     
    7166 H6        -273.6614  -160.4811   239.5619 H6            1 RES     
    7167 H6        -272.1813  -161.3515   239.7118 H6            1 RES     
    7168 H6        -275.0155  -162.6352   239.6941 H6            1 RES     
    7169 H6        -273.1104  -164.1567   240.1802 H6            1 RES     
    7170 H6        -274.1426  -164.6515   238.8074 H6            1 RES     
    7171 H6        -272.4884  -163.9810   237.1293 H6            1 RES     
    7172 H6        -271.4763  -163.2037   238.3609 H6            1 RES     
    7173 H6        -270.4142  -165.2678   237.8565 H6            1 RES     
    7174 H6        -271.1199  -165.4550   239.4733 H6            1 RES     
    7175 H6        -273.0397  -166.7513   238.5142 H6            1 RES     
    7176 H6        -271.4354  -167.4929   238.2201 H6            1 RES     
    7177 H6        -273.0926  -165.9230   236.1333 H6            1 RES     
    7178 H6        -272.8633  -167.6973   236.2416 H6            1 RES     
    7179 H6        -270.3915  -167.4157   235.8669 H6            1 RES     
    7180 H6        -271.3865  -166.7652   234.5092 H6            1 RES     
    7181 H6        -270.6359  -165.6315   235.6716 H6            1 RES     
    7182 H6        -275.2916  -161.2620   237.8433 H6            1 RES     
    7183 H6        -274.8943  -162.8659   237.1649 H6            1 RES     
    7184 H6        -272.4595  -161.8672   236.8206 H6            1 RES     
    7185 H6        -273.1207  -160.3120   237.3445 H6            1 RES     
    7186 H6        -272.9039  -160.5627   234.9199 H6            1 RES     
    7187 H6        -273.9716  -162.0077   234.8997 H6            1 RES     
    7188 H6        -274.8563  -159.1468   235.7130 H6            1 RES     
    7189 H6        -275.8961  -160.6172   235.6472 H6            1 RES     
    7190 H6        -275.4770  -160.8227   233.1782 H6            1 RES     
    7191 H6        -276.2894  -159.2937   233.6687 H6            1 RES     
    7192 H6        -273.2847  -159.5639   233.0123 H6            1 RES     
    7193 H6        -274.1199  -158.0470   233.5029 H6            1 RES     
    7194 H6        -273.6836  -158.2174   231.0598 H6            1 RES     
    7195 H6        -274.6526  -159.7291   230.9550 H6            1 RES     
    7196 H6        -276.7123  -158.4288   231.6042 H6            1 RES     
    7197 H6        -275.9090  -157.7264   230.1619 H6            1 RES     
    7198 H6        -275.7022  -156.9315   231.7666 H6            1 RES     
    7199 C0        -277.6505  -157.2620   253.3296 C0            1 RES     
    7200 C0        -277.0701  -157.2119   254.8005 C0            1 RES     
    7201 C0        -275.7223  -157.3429   254.7939 C0            1 RES     
    7202 S1        -275.0179  -157.2611   256.3151 S1            1 RES     
    7203 C0        -276.5055  -157.0295   257.1029 C0            1 RES     
    7204 C0        -277.5244  -157.1096   256.1427 C0            1 RES     
    7205 C0        -275.2762  -157.5966   253.4745 C0            1 RES     
    7206 C0        -276.3084  -157.5818   252.6620 C0            1 RES     
    7207 C0        -275.9370  -158.0383   251.3521 C0            1 RES     
    7208 C0        -274.6000  -158.3871   251.2939 C0            1 RES     
    7209 S1        -273.6941  -158.1021   252.8246 S1            1 RES     
    7210 H2        -278.5406  -157.0471   256.4351 H2            1 RES     
    7211 H2        -276.6247  -158.2197   250.5811 H2            1 RES     
    7212 N3        -278.1606  -155.8589   260.3173 N3            1 RES     
    7213 C0        -277.9707  -156.2528   259.0267 C0            1 RES     
    7214 C0        -276.7038  -156.6901   258.5565 C0            1 RES     
    7215 C0        -275.6583  -156.7063   259.5048 C0            1 RES     
    7216 N3        -274.3841  -157.0982   259.2436 N3            1 RES     
    7217 S1        -273.6413  -156.9034   260.7052 S1            1 RES     
    7218 N3        -274.8364  -156.3332   261.6871 N3            1 RES     
    7219 C0        -275.9030  -156.2874   260.8456 C0            1 RES     
    7220 C0        -277.1616  -155.8623   261.2335 C0            1 RES     
    7221 H4        -278.8142  -156.1867   258.3712 H4            1 RES     
    7222 C5        -274.1912  -150.3649   261.0971 C5            1 RES     
    7223 C5        -273.9997  -151.7987   260.6031 C5            1 RES     
    7224 C5        -275.2575  -152.3811   259.9362 C5            1 RES     
    7225 C5        -275.6398  -151.6696   258.6253 C5            1 RES     
    7226 C5        -276.8756  -152.3226   257.9877 C5            1 RES     
    7227 C5        -277.1800  -151.7158   256.6003 C5            1 RES     
    7228 C5        -278.3825  -152.3553   255.8562 C5            1 RES     
    7229 C5        -278.2482  -153.8786   255.8177 C5            1 RES     
    7230 C5        -279.1065  -154.6565   254.7887 C5            1 RES     
    7231 C5        -280.6664  -154.7564   255.0017 C5            1 RES     
    7232 C5        -280.8875  -155.7297   256.1926 C5            1 RES     
    7233 C5        -282.2170  -156.2228   256.7759 C5            1 RES     
    7234 C5        -281.8045  -157.2031   257.9232 C5            1 RES     
    7235 C5        -282.9152  -157.8823   258.7224 C5            1 RES     
    7236 C5        -283.6710  -158.9350   257.9210 C5            1 RES     
    7237 C5        -278.5103  -154.6050   253.3746 C5            1 RES     
    7238 C0        -278.5025  -156.0177   252.6586 C0            1 RES     
    7239 C5        -278.4865  -155.7928   251.0852 C5            1 RES     
    7240 C5        -279.6049  -156.4858   250.2310 C5            1 RES     
    7241 C5        -279.2700  -157.9415   249.7950 C5            1 RES     
    7242 C5        -278.2668  -158.0640   248.6236 C5            1 RES     
    7243 C5        -277.7469  -159.4991   248.4091 C5            1 RES     
    7244 C5        -278.7758  -160.4962   247.8535 C5            1 RES     
    7245 C5        -279.2967  -160.1640   246.4418 C5            1 RES     
    7246 C5        -278.1856  -160.0941   245.3894 C5            1 RES     
    7247 C5        -280.1185  -155.5970   249.0325 C5            1 RES     
    7248 C5        -279.0433  -154.8972   248.1559 C5            1 RES     
    7249 C5        -279.5926  -154.2390   246.8702 C5            1 RES     
    7250 C5        -280.6121  -153.1052   247.0977 C5            1 RES     
    7251 C5        -281.0826  -152.4421   245.7798 C5            1 RES     
    7252 C5        -279.9683  -151.6624   245.0475 C5            1 RES     
    7253 C5        -280.4237  -151.0091   243.7285 C5            1 RES     
    7254 C5        -281.4812  -149.9201   243.9091 C5            1 RES     
    7255 H6        -274.3859  -149.6714   260.2545 H6            1 RES     
    7256 H6        -273.2681  -150.0255   261.6126 H6            1 RES     
    7257 H6        -275.0358  -150.3187   261.8171 H6            1 RES     
    7258 H6        -273.1403  -151.8402   259.8985 H6            1 RES     
    7259 H6        -273.7520  -152.4305   261.4839 H6            1 RES     
    7260 H6        -275.0459  -153.4490   259.7038 H6            1 RES     
    7261 H6        -276.1057  -152.3462   260.6535 H6            1 RES     
    7262 H6        -274.7787  -151.7484   257.9243 H6            1 RES     
    7263 H6        -275.8590  -150.5972   258.8050 H6            1 RES     
    7264 H6        -276.6468  -153.4036   257.8732 H6            1 RES     
    7265 H6        -277.7544  -152.2086   258.6578 H6            1 RES     
    7266 H6        -277.3546  -150.6222   256.6905 H6            1 RES     
    7267 H6        -276.2749  -151.8644   255.9694 H6            1 RES     
    7268 H6        -279.3468  -152.0907   256.3407 H6            1 RES     
    7269 H6        -278.3801  -151.9426   254.8243 H6            1 RES     
    7270 H6        -278.4357  -154.2633   256.8376 H6            1 RES     
    7271 H6        -277.1857  -154.1238   255.5902 H6            1 RES     
    7272 H6        -278.8283  -155.6281   254.9818 H6            1 RES     
    7273 H6        -281.1119  -153.7524   255.1636 H6            1 RES     
    7274 H6        -281.1406  -155.2211   254.1091 H6            1 RES     
    7275 H6        -280.4521  -156.6814   255.8340 H6            1 RES     
    7276 H6        -280.3351  -155.2929   257.0417 H6            1 RES     
    7277 H6        -282.8089  -156.7495   255.9964 H6            1 RES     
    7278 H6        -282.8050  -155.3758   257.1860 H6            1 RES     
    7279 H6        -281.1433  -158.0076   257.5224 H6            1 RES     
    7280 H6        -281.2059  -156.6246   258.6607 H6            1 RES     
    7281 H6        -283.6059  -157.1228   259.1415 H6            1 RES     
    7282 H6        -282.4273  -158.4147   259.5715 H6            1 RES     
    7283 H6        -282.9655  -159.7078   257.5425 H6            1 RES     
    7284 H6        -284.2084  -158.4734   257.0702 H6            1 RES     
    7285 H6        -284.4041  -159.4371   258.5879 H6            1 RES     
    7286 H6        -277.4434  -154.2934   253.3846 H6            1 RES     
    7287 H6        -279.0743  -153.8116   252.8382 H6            1 RES     
    7288 H6        -278.7401  -154.7237   250.9543 H6            1 RES     
    7289 H6        -277.4747  -155.8501   250.6369 H6            1 RES     
    7290 H6        -280.4885  -156.5761   250.9025 H6            1 RES     
    7291 H6        -278.9022  -158.4789   250.6940 H6            1 RES     
    7292 H6        -280.2074  -158.4448   249.4733 H6            1 RES     
    7293 H6        -278.7146  -157.6951   247.6813 H6            1 RES     
    7294 H6        -277.3892  -157.4223   248.8277 H6            1 RES     
    7295 H6        -276.8792  -159.4606   247.7195 H6            1 RES     
    7296 H6        -277.3619  -159.9000   249.3691 H6            1 RES     
    7297 H6        -279.6344  -160.5746   248.5529 H6            1 RES     
    7298 H6        -278.2871  -161.4942   247.8117 H6            1 RES     
    7299 H6        -279.8601  -159.2083   246.4457 H6            1 RES     
    7300 H6        -280.0019  -160.9694   246.1446 H6            1 RES     
    7301 H6        -277.6101  -161.0442   245.3678 H6            1 RES     
    7302 H6        -278.6325  -159.9260   244.3877 H6            1 RES     
    7303 H6        -277.4937  -159.2503   245.5904 H6            1 RES     
    7304 H6        -280.7351  -154.7761   249.4581 H6            1 RES     
    7305 H6        -280.7943  -156.2169   248.4041 H6            1 RES     
    7306 H6        -278.2806  -155.6072   247.8096 H6            1 RES     
    7307 H6        -278.5094  -154.1300   248.7561 H6            1 RES     
    7308 H6        -278.7117  -153.8316   246.3356 H6            1 RES     
    7309 H6        -280.0545  -155.0204   246.2270 H6            1 RES     
    7310 H6        -280.1773  -152.3252   247.7598 H6            1 RES     
    7311 H6        -281.5054  -153.5324   247.5969 H6            1 RES     
    7312 H6        -281.5093  -153.2157   245.1043 H6            1 RES     
    7313 H6        -281.8946  -151.7290   246.0422 H6            1 RES     
    7314 H6        -279.1477  -152.3574   244.7805 H6            1 RES     
    7315 H6        -279.5576  -150.8783   245.7205 H6            1 RES     
    7316 H6        -279.5336  -150.5372   243.2565 H6            1 RES     
    7317 H6        -280.8078  -151.7870   243.0341 H6            1 RES     
    7318 H6        -282.4230  -150.3382   244.3173 H6            1 RES     
    7319 H6        -281.7102  -149.4651   242.9215 H6            1 RES     
    7320 H6        -281.1036  -149.1230   244.5842 H6            1 RES     
    7321 C0        -279.8708  -154.2199   265.5930 C0            1 RES     
    7322 C0        -279.0823  -154.6231   266.9039 C0            1 RES     
    7323 C0        -277.8098  -154.9827   266.6124 C0            1 RES     
    7324 S1        -276.8874  -155.3893   267.9543 S1            1 RES     
    7325 C0        -278.1582  -155.0946   269.0432 C0            1 RES     
    7326 C0        -279.3010  -154.7647   268.3006 C0            1 RES     
    7327 C0        -277.6282  -154.9898   265.2084 C0            1 RES     
    7328 C0        -278.7417  -154.6019   264.6294 C0            1 RES     
    7329 C0        -278.6742  -154.7919   263.2076 C0            1 RES     
    7330 C0        -277.4661  -155.3455   262.8242 C0            1 RES     
    7331 S1        -276.3043  -155.5954   264.1779 S1            1 RES     
    7332 H2        -280.2257  -154.5965   268.7890 H2            1 RES     
    7333 H2        -279.4909  -154.6617   262.5624 H2            1 RES     
    7334 N3        -279.0315  -154.4499   272.6852 N3            1 RES     
    7335 C0        -279.1229  -154.5530   271.3295 C0            1 RES     
    7336 C0        -278.0624  -155.0809   270.5460 C0            1 RES     
    7337 C0        -276.9162  -155.5048   271.2525 C0            1 RES     
    7338 N3        -275.8081  -156.0402   270.6774 N3            1 RES     
    7339 S1        -274.8332  -156.3314   271.9778 S1            1 RES     
    7340 N3        -275.7204  -155.8106   273.2659 N3            1 RES     
    7341 C0        -276.8649  -155.3802   272.6719 C0            1 RES     
    7342 C0        -277.9321  -154.8458   273.3724 C0            1 RES     
    7343 H4        -280.0201  -154.1864   270.8755 H4            1 RES     
    7344 C5        -273.9091  -150.0809   273.7904 C5            1 RES     
    7345 C5        -274.1035  -151.3670   272.9875 C5            1 RES     
    7346 C5        -275.5411  -151.5449   272.4701 C5            1 RES     
    7347 C5        -275.9518  -150.4867   271.4297 C5            1 RES     
    7348 C5        -277.3790  -150.7428   270.9218 C5            1 RES     
    7349 C5        -277.7482  -149.7801   269.7717 C5            1 RES     
    7350 C5        -279.1559  -150.0038   269.1579 C5            1 RES     
    7351 C5        -279.3574  -151.4736   268.7851 C5            1 RES     
    7352 C5        -280.5045  -151.8221   267.8035 C5            1 RES     
    7353 C5        -282.0007  -151.6950   268.2870 C5            1 RES     
    7354 C5        -282.2464  -152.8692   269.2747 C5            1 RES     
    7355 C5        -283.5494  -153.2461   269.9895 C5            1 RES     
    7356 C5        -283.1911  -154.5275   270.8122 C5            1 RES     
    7357 C5        -284.2908  -155.1718   271.6544 C5            1 RES     
    7358 C5        -285.3639  -155.8548   270.8158 C5            1 RES     
    7359 C5        -280.1267  -151.5414   266.3419 C5            1 RES     
    7360 C0        -280.5268  -152.7224   265.3655 C0            1 RES     
    7361 C5        -280.6956  -152.1366   263.8976 C5            1 RES     
    7362 C5        -282.0499  -152.4000   263.1511 C5            1 RES     
    7363 C5        -282.1020  -153.7460   262.3719 C5            1 RES     
    7364 C5        -281.3324  -153.7604   261.0298 C5            1 RES     
    7365 C5        -281.1687  -155.1716   260.4320 C5            1 RES     
    7366 C5        -282.4574  -155.8122   259.8931 C5            1 RES     
    7367 C5        -283.0980  -155.0682   258.7053 C5            1 RES     
    7368 C5        -282.1656  -154.9460   257.4960 C5            1 RES     
    7369 C5        -282.5329  -151.1761   262.2798 C5            1 RES     
    7370 C5        -281.4746  -150.4875   261.3743 C5            1 RES     
    7371 C5        -282.0543  -149.4571   260.3794 C5            1 RES     
    7372 C5        -282.7629  -148.2492   261.0242 C5            1 RES     
    7373 C5        -283.2702  -147.2202   259.9841 C5            1 RES     
    7374 C5        -282.1357  -146.4964   259.2259 C5            1 RES     
    7375 C5        -282.6306  -145.4792   258.1800 C5            1 RES     
    7376 C5        -283.3924  -144.2964   258.7779 C5            1 RES     
    7377 H6        -274.0734  -149.1841   273.1600 H6            1 RES     
    7378 H6        -272.8690  -150.0408   274.1772 H6            1 RES     
    7379 H6        -274.6085  -150.0599   274.6531 H6            1 RES     
    7380 H6        -273.3866  -151.3898   272.1377 H6            1 RES     
    7381 H6        -273.8692  -152.2234   273.6571 H6            1 RES     
    7382 H6        -275.5993  -152.5470   271.9890 H6            1 RES     
    7383 H6        -276.2468  -151.5333   273.3286 H6            1 RES     
    7384 H6        -275.2408  -150.5462   270.5753 H6            1 RES     
    7385 H6        -275.9078  -149.4664   271.8625 H6            1 RES     
    7386 H6        -277.4059  -151.7884   270.5479 H6            1 RES     
    7387 H6        -278.1043  -150.6391   271.7569 H6            1 RES     
    7388 H6        -277.6697  -148.7261   270.1144 H6            1 RES     
    7389 H6        -276.9990  -149.9307   268.9620 H6            1 RES     
    7390 H6        -279.9590  -149.6972   269.8619 H6            1 RES     
    7391 H6        -279.2179  -149.3648   268.2507 H6            1 RES     
    7392 H6        -279.4701  -152.0506   269.7219 H6            1 RES     
    7393 H6        -278.4174  -151.8399   268.3128 H6            1 RES     
    7394 H6        -280.4150  -152.8451   267.7378 H6            1 RES     
    7395 H6        -282.1925  -150.6962   268.7322 H6            1 RES     
    7396 H6        -282.6898  -151.8439   267.4265 H6            1 RES     
    7397 H6        -282.0823  -153.7695   268.6531 H6            1 RES     
    7398 H6        -281.4942  -152.7503   270.0728 H6            1 RES     
    7399 H6        -284.3487  -153.4605   269.2475 H6            1 RES     
    7400 H6        -283.8757  -152.4313   270.6684 H6            1 RES     
    7401 H6        -282.7838  -155.3167   270.1368 H6            1 RES     
    7402 H6        -282.3805  -154.2547   271.5232 H6            1 RES     
    7403 H6        -284.7336  -154.4248   272.3440 H6            1 RES     
    7404 H6        -283.8080  -155.9676   272.2676 H6            1 RES     
    7405 H6        -284.9037  -156.6269   270.1598 H6            1 RES     
    7406 H6        -285.9100  -155.1177   270.1961 H6            1 RES     
    7407 H6        -286.0807  -156.3647   271.4946 H6            1 RES     
    7408 H6        -279.0283  -151.4329   266.2103 H6            1 RES     
    7409 H6        -280.5810  -150.5572   266.0967 H6            1 RES     
    7410 H6        -280.7314  -151.0396   264.0381 H6            1 RES     
    7411 H6        -279.7970  -152.2620   263.2614 H6            1 RES     
    7412 H6        -282.8233  -152.4911   263.9470 H6            1 RES     
    7413 H6        -281.7289  -154.5373   263.0550 H6            1 RES     
    7414 H6        -283.1623  -153.9862   262.1405 H6            1 RES     
    7415 H6        -281.8252  -153.1057   260.2861 H6            1 RES     
    7416 H6        -280.3177  -153.3494   261.1880 H6            1 RES     
    7417 H6        -280.4244  -155.1230   259.6114 H6            1 RES     
    7418 H6        -280.7408  -155.8501   261.1982 H6            1 RES     
    7419 H6        -283.2000  -155.9028   260.7134 H6            1 RES     
    7420 H6        -282.2050  -156.8414   259.5561 H6            1 RES     
    7421 H6        -283.4373  -154.0574   259.0117 H6            1 RES     
    7422 H6        -283.9950  -155.6437   258.3914 H6            1 RES     
    7423 H6        -281.8161  -155.9495   257.1715 H6            1 RES     
    7424 H6        -282.7091  -154.4691   256.6542 H6            1 RES     
    7425 H6        -281.2874  -154.3087   257.7279 H6            1 RES     
    7426 H6        -282.8901  -150.3849   262.9739 H6            1 RES     
    7427 H6        -283.4109  -151.5008   261.6800 H6            1 RES     
    7428 H6        -280.9409  -151.2173   260.7511 H6            1 RES     
    7429 H6        -280.7064  -149.9906   262.0042 H6            1 RES     
    7430 H6        -281.1955  -149.0950   259.7800 H6            1 RES     
    7431 H6        -282.7623  -149.9700   259.6914 H6            1 RES     
    7432 H6        -282.0785  -147.7375   261.7352 H6            1 RES     
    7433 H6        -283.6431  -148.6196   261.5879 H6            1 RES     
    7434 H6        -283.9473  -147.7242   259.2600 H6            1 RES     
    7435 H6        -283.8631  -146.4591   260.5370 H6            1 RES     
    7436 H6        -281.5312  -147.2407   258.6707 H6            1 RES     
    7437 H6        -281.4721  -145.9791   259.9528 H6            1 RES     
    7438 H6        -281.7400  -145.0720   257.6520 H6            1 RES     
    7439 H6        -283.2703  -145.9902   257.4286 H6            1 RES     
    7440 H6        -284.3310  -144.6279   259.2654 H6            1 RES     
    7441 H6        -283.6623  -143.5869   257.9662 H6            1 RES     
    7442 H6        -282.7578  -143.7613   259.5158 H6            1 RES     
    7443 C0        -279.5535  -153.8377   278.4120 C0            1 RES     
    7444 C0        -278.6846  -154.6725   279.4373 C0            1 RES     
    7445 C0        -277.5757  -155.1696   278.8399 C0            1 RES     
    7446 S1        -276.5737  -156.0383   279.8685 S1            1 RES     
    7447 C0        -277.5770  -155.7930   281.2178 C0            1 RES     
    7448 C0        -278.7197  -155.1012   280.7913 C0            1 RES     
    7449 C0        -277.6092  -154.8746   277.4557 C0            1 RES     
    7450 C0        -278.6871  -154.1715   277.1925 C0            1 RES     
    7451 C0        -278.8725  -154.0272   275.7758 C0            1 RES     
    7452 C0        -277.8808  -154.6765   275.0632 C0            1 RES     
    7453 S1        -276.6124  -155.4403   276.0891 S1            1 RES     
    7454 H2        -279.5046  -154.8946   281.4719 H2            1 RES     
    7455 H2        -279.7286  -153.6064   275.3396 H2            1 RES     
    7456 N3        -277.7446  -155.8892   285.0132 N3            1 RES     
    7457 C0        -278.0551  -155.6496   283.7082 C0            1 RES     
    7458 C0        -277.2596  -156.1536   282.6450 C0            1 RES     
    7459 C0        -276.1390  -156.9272   283.0171 C0            1 RES     
    7460 N3        -275.2683  -157.4962   282.1434 N3            1 RES     
    7461 S1        -274.1970  -158.2540   283.1455 S1            1 RES     
    7462 N3        -274.7522  -157.9070   284.6584 N3            1 RES     
    7463 C0        -275.8531  -157.1543   284.3954 C0            1 RES     
    7464 C0        -276.6661  -156.6232   285.3815 C0            1 RES     
    7465 H4        -278.9103  -155.0344   283.5191 H4            1 RES     
    7466 C5        -271.7012  -152.8743   285.9806 C5            1 RES     
    7467 C5        -272.2824  -153.8784   284.9853 C5            1 RES     
    7468 C5        -273.7850  -153.6737   284.7282 C5            1 RES     
    7469 C5        -274.1092  -152.3435   284.0235 C5            1 RES     
    7470 C5        -275.6171  -152.2176   283.7576 C5            1 RES     
    7471 C5        -275.9378  -150.9600   282.9202 C5            1 RES     
    7472 C5        -277.4356  -150.7814   282.5555 C5            1 RES     
    7473 C5        -277.9994  -152.0619   281.9371 C5            1 RES     
    7474 C5        -279.3266  -151.9608   281.1439 C5            1 RES     
    7475 C5        -280.6728  -151.6922   281.9211 C5            1 RES     
    7476 C5        -281.0150  -153.0058   282.6775 C5            1 RES     
    7477 C5        -282.2483  -153.3075   283.5370 C5            1 RES     
    7478 C5        -282.0546  -154.7900   283.9974 C5            1 RES     
    7479 C5        -283.1299  -155.4131   284.8859 C5            1 RES     
    7480 C5        -284.4360  -155.6786   284.1476 C5            1 RES     
    7481 C5        -279.1176  -151.4116   279.7253 C5            1 RES     
    7482 C0        -279.9005  -152.2380   278.6243 C0            1 RES     
    7483 C5        -280.1552  -151.3000   277.3665 C5            1 RES     
    7484 C5        -281.6295  -151.1372   276.8561 C5            1 RES     
    7485 C5        -282.0826  -152.2290   275.8441 C5            1 RES     
    7486 C5        -281.5407  -152.0587   274.4050 C5            1 RES     
    7487 C5        -281.7725  -153.2938   273.5124 C5            1 RES     
    7488 C5        -283.2334  -153.5521   273.1120 C5            1 RES     
    7489 C5        -283.8685  -152.4470   272.2459 C5            1 RES     
    7490 C5        -283.1206  -152.2061   270.9308 C5            1 RES     
    7491 C5        -281.9631  -149.6763   276.3615 C5            1 RES     
    7492 C5        -280.9278  -148.9886   275.4292 C5            1 RES     
    7493 C5        -281.4143  -147.6662   274.7949 C5            1 RES     
    7494 C5        -281.7451  -146.5412   275.7957 C5            1 RES     
    7495 C5        -282.1688  -145.2221   275.1040 C5            1 RES     
    7496 C5        -281.0305  -144.5491   274.3057 C5            1 RES     
    7497 C5        -281.4456  -143.2420   273.6035 C5            1 RES     
    7498 C5        -281.8401  -142.1206   274.5645 C5            1 RES     
    7499 H6        -271.7613  -151.8389   285.5894 H6            1 RES     
    7500 H6        -270.6311  -153.1100   286.1606 H6            1 RES     
    7501 H6        -272.2447  -152.9367   286.9474 H6            1 RES     
    7502 H6        -271.7204  -153.8238   284.0272 H6            1 RES     
    7503 H6        -272.1402  -154.8966   285.4089 H6            1 RES     
    7504 H6        -274.1264  -154.5067   284.0735 H6            1 RES     
    7505 H6        -274.3372  -153.7430   285.6902 H6            1 RES     
    7506 H6        -273.5614  -152.3220   283.0547 H6            1 RES     
    7507 H6        -273.7847  -151.4792   284.6383 H6            1 RES     
    7508 H6        -275.9218  -153.1232   283.1910 H6            1 RES     
    7509 H6        -276.1720  -152.1900   284.7197 H6            1 RES     
    7510 H6        -275.5861  -150.0480   283.4487 H6            1 RES     
    7511 H6        -275.3661  -151.0427   281.9685 H6            1 RES     
    7512 H6        -278.0417  -150.5151   283.4479 H6            1 RES     
    7513 H6        -277.4929  -149.9445   281.8265 H6            1 RES     
    7514 H6        -278.0932  -152.8160   282.7407 H6            1 RES     
    7515 H6        -277.2397  -152.4642   281.2288 H6            1 RES     
    7516 H6        -279.4684  -152.9383   280.8554 H6            1 RES     
    7517 H6        -280.5788  -150.8101   282.5886 H6            1 RES     
    7518 H6        -281.4971  -151.5095   281.1968 H6            1 RES     
    7519 H6        -281.1408  -153.7470   281.8660 H6            1 RES     
    7520 H6        -280.1454  -153.2134   283.3236 H6            1 RES     
    7521 H6        -283.1756  -153.1961   282.9344 H6            1 RES     
    7522 H6        -282.2890  -152.6331   284.4173 H6            1 RES     
    7523 H6        -281.9297  -155.4550   283.1102 H6            1 RES     
    7524 H6        -281.1086  -154.8403   284.5800 H6            1 RES     
    7525 H6        -283.2960  -154.7856   285.7849 H6            1 RES     
    7526 H6        -282.7432  -156.4037   285.2200 H6            1 RES     
    7527 H6        -284.2535  -156.3411   283.2723 H6            1 RES     
    7528 H6        -284.8973  -154.7314   283.8074 H6            1 RES     
    7529 H6        -285.1369  -156.2015   284.8331 H6            1 RES     
    7530 H6        -278.0532  -151.4690   279.4102 H6            1 RES     
    7531 H6        -279.3821  -150.3334   279.7774 H6            1 RES     
    7532 H6        -279.9346  -150.2790   277.7317 H6            1 RES     
    7533 H6        -279.4082  -151.4261   276.5579 H6            1 RES     
    7534 H6        -282.2783  -151.2778   277.7501 H6            1 RES     
    7535 H6        -281.7905  -153.2128   276.2673 H6            1 RES     
    7536 H6        -283.1919  -152.2179   275.7765 H6            1 RES     
    7537 H6        -281.9865  -151.1702   273.9188 H6            1 RES     
    7538 H6        -280.4496  -151.8813   274.4458 H6            1 RES     
    7539 H6        -281.1646  -153.1827   272.5916 H6            1 RES     
    7540 H6        -281.3911  -154.1990   274.0278 H6            1 RES     
    7541 H6        -283.8488  -153.7036   274.0235 H6            1 RES     
    7542 H6        -283.2594  -154.4996   272.5304 H6            1 RES     
    7543 H6        -283.9349  -151.4945   272.8109 H6            1 RES     
    7544 H6        -284.9040  -152.7651   271.9994 H6            1 RES     
    7545 H6        -283.0454  -153.1491   270.3479 H6            1 RES     
    7546 H6        -283.6679  -151.4554   270.3240 H6            1 RES     
    7547 H6        -282.1021  -151.8061   271.1147 H6            1 RES     
    7548 H6        -282.0364  -149.0227   277.2573 H6            1 RES     
    7549 H6        -282.9689  -149.6903   275.8880 H6            1 RES     
    7550 H6        -280.6604  -149.6312   274.5798 H6            1 RES     
    7551 H6        -279.9866  -148.7979   275.9877 H6            1 RES     
    7552 H6        -280.5961  -147.3282   274.1283 H6            1 RES     
    7553 H6        -282.3092  -147.8688   274.1658 H6            1 RES     
    7554 H6        -280.8699  -146.3410   276.4512 H6            1 RES     
    7555 H6        -282.5910  -146.8749   276.4305 H6            1 RES     
    7556 H6        -283.0373  -145.4131   274.4361 H6            1 RES     
    7557 H6        -282.4970  -144.5224   275.9035 H6            1 RES     
    7558 H6        -280.6879  -145.2342   273.5051 H6            1 RES     
    7559 H6        -280.1718  -144.3437   274.9815 H6            1 RES     
    7560 H6        -280.5764  -142.8835   273.0086 H6            1 RES     
    7561 H6        -282.2835  -143.4398   272.9009 H6            1 RES     
    7562 H6        -282.7453  -142.3888   275.1451 H6            1 RES     
    7563 H6        -282.0690  -141.2027   273.9814 H6            1 RES     
    7564 H6        -281.0040  -141.8957   275.2600 H6            1 RES     
    7565 C0        -277.2720  -156.5733   290.7362 C0            1 RES     
    7566 C0        -276.4599  -157.7665   291.3839 C0            1 RES     
    7567 C0        -275.5836  -158.2938   290.4964 C0            1 RES     
    7568 S1        -274.6496  -159.5437   291.1149 S1            1 RES     
    7569 C0        -275.3668  -159.4541   292.6527 C0            1 RES     
    7570 C0        -276.3855  -158.4917   292.6034 C0            1 RES     
    7571 C0        -275.7573  -157.6773   289.2339 C0            1 RES     
    7572 C0        -276.6868  -156.7542   289.3312 C0            1 RES     
    7573 C0        -277.0442  -156.2473   288.0360 C0            1 RES     
    7574 C0        -276.3307  -156.8721   287.0294 C0            1 RES     
    7575 S1        -275.1174  -158.0677   287.6155 S1            1 RES     
    7576 H2        -276.9987  -158.3185   293.4494 H2            1 RES     
    7577 H2        -277.8455  -155.5918   287.8671 H2            1 RES     
    7578 N3        -274.9886  -160.4183   296.3092 N3            1 RES     
    7579 C0        -275.4300  -159.8250   295.1647 C0            1 RES     
    7580 C0        -274.9266  -160.1933   293.8887 C0            1 RES     
    7581 C0        -273.9547  -161.2170   293.8735 C0            1 RES     
    7582 N3        -273.3646  -161.7056   292.7517 N3            1 RES     
    7583 S1        -272.3440  -162.8552   293.3540 S1            1 RES     
    7584 N3        -272.5826  -162.7859   294.9837 N3            1 RES     
    7585 C0        -273.5237  -161.8115   295.0956 C0            1 RES     
    7586 C0        -274.0496  -161.3959   296.3065 C0            1 RES     
    7587 H4        -276.1523  -159.0425   295.2724 H4            1 RES     
    7588 C5        -268.3655  -158.8257   296.6920 C5            1 RES     
    7589 C5        -269.2883  -159.4468   295.6435 C5            1 RES     
    7590 C5        -270.7336  -158.9270   295.7267 C5            1 RES     
    7591 C5        -270.8665  -157.4320   295.3831 C5            1 RES     
    7592 C5        -272.3350  -156.9845   295.4428 C5            1 RES     
    7593 C5        -272.4996  -155.5278   294.9563 C5            1 RES     
    7594 C5        -273.9617  -155.0082   294.9300 C5            1 RES     
    7595 C5        -274.8711  -155.9861   294.1838 C5            1 RES     
    7596 C5        -276.2483  -155.4687   293.6975 C5            1 RES     
    7597 C5        -277.3761  -155.1609   294.7566 C5            1 RES     
    7598 C5        -277.8756  -156.5357   295.2812 C5            1 RES     
    7599 C5        -279.0041  -156.8123   296.2816 C5            1 RES     
    7600 C5        -279.0658  -158.3720   296.3847 C5            1 RES     
    7601 C5        -280.1061  -158.9901   297.3172 C5            1 RES     
    7602 C5        -281.5332  -158.8397   296.8050 C5            1 RES     
    7603 C5        -276.1386  -154.6435   292.4072 C5            1 RES     
    7604 C0        -277.2339  -155.0345   291.3322 C0            1 RES     
    7605 C5        -277.4651  -153.7948   290.3644 C5            1 RES     
    7606 C5        -278.9295  -153.2599   290.1904 C5            1 RES     
    7607 C5        -279.7498  -153.9834   289.0835 C5            1 RES     
    7608 C5        -279.4027  -153.5736   287.6325 C5            1 RES     
    7609 C5        -280.0222  -154.5011   286.5687 C5            1 RES     
    7610 C5        -281.5474  -154.3970   286.4120 C5            1 RES     
    7611 C5        -282.0524  -153.0241   285.9273 C5            1 RES     
    7612 C5        -281.4729  -152.6126   284.5702 C5            1 RES     
    7613 C5        -279.0125  -151.6881   290.0769 C5            1 RES     
    7614 C5        -278.0034  -150.9909   289.1231 C5            1 RES     
    7615 C5        -278.2843  -149.4915   288.8766 C5            1 RES     
    7616 C5        -278.2156  -148.5965   290.1300 C5            1 RES     
    7617 C5        -278.4450  -147.0976   289.8156 C5            1 RES     
    7618 C5        -277.3199  -146.4643   288.9677 C5            1 RES     
    7619 C5        -277.5451  -144.9759   288.6393 C5            1 RES     
    7620 C5        -277.5445  -144.0636   289.8658 C5            1 RES     
    7621 H6        -268.2600  -157.7329   296.5387 H6            1 RES     
    7622 H6        -267.3559  -159.2810   296.6114 H6            1 RES     
    7623 H6        -268.7609  -159.0198   297.7117 H6            1 RES     
    7624 H6        -268.8755  -159.2655   294.6270 H6            1 RES     
    7625 H6        -269.3061  -160.5453   295.8157 H6            1 RES     
    7626 H6        -271.3380  -159.5077   294.9942 H6            1 RES     
    7627 H6        -271.1396  -159.1251   296.7422 H6            1 RES     
    7628 H6        -270.4760  -157.2772   294.3523 H6            1 RES     
    7629 H6        -270.2776  -156.8090   296.0870 H6            1 RES     
    7630 H6        -272.9064  -157.6618   294.7729 H6            1 RES     
    7631 H6        -272.7228  -157.0895   296.4786 H6            1 RES     
    7632 H6        -271.8871  -154.8436   295.5818 H6            1 RES     
    7633 H6        -272.1058  -155.4808   293.9160 H6            1 RES     
    7634 H6        -274.3582  -154.8596   295.9573 H6            1 RES     
    7635 H6        -273.9459  -154.0254   294.4113 H6            1 RES     
    7636 H6        -275.0041  -156.8811   294.8198 H6            1 RES     
    7637 H6        -274.3281  -156.3353   293.2761 H6            1 RES     
    7638 H6        -276.6367  -156.3093   293.2488 H6            1 RES     
    7639 H6        -276.9982  -154.4931   295.5591 H6            1 RES     
    7640 H6        -278.2401  -154.6699   294.2567 H6            1 RES     
    7641 H6        -278.2753  -157.0292   294.3754 H6            1 RES     
    7642 H6        -276.9848  -157.0399   295.6923 H6            1 RES     
    7643 H6        -279.9647  -156.4003   295.9037 H6            1 RES     
    7644 H6        -278.7692  -156.3699   297.2719 H6            1 RES     
    7645 H6        -279.2184  -158.8185   295.3736 H6            1 RES     
    7646 H6        -278.0769  -158.7241   296.7523 H6            1 RES     
    7647 H6        -279.9996  -158.5751   298.3400 H6            1 RES     
    7648 H6        -279.8950  -160.0837   297.3622 H6            1 RES     
    7649 H6        -281.6277  -159.2967   295.7948 H6            1 RES     
    7650 H6        -281.8264  -157.7731   296.7597 H6            1 RES     
    7651 H6        -282.2204  -159.3794   297.4912 H6            1 RES     
    7652 H6        -275.1696  -154.8099   291.8888 H6            1 RES     
    7653 H6        -276.1560  -153.5794   292.7274 H6            1 RES     
    7654 H6        -276.9800  -152.9447   290.8804 H6            1 RES     
    7655 H6        -276.8902  -153.8540   289.4190 H6            1 RES     
    7656 H6        -279.4540  -153.4931   291.1446 H6            1 RES     
    7657 H6        -279.6154  -155.0750   289.2335 H6            1 RES     
    7658 H6        -280.8287  -153.7625   289.2338 H6            1 RES     
    7659 H6        -279.7151  -152.5312   287.4321 H6            1 RES     
    7660 H6        -278.3051  -153.6049   287.4985 H6            1 RES     
    7661 H6        -279.5475  -154.2827   285.5906 H6            1 RES     
    7662 H6        -279.7713  -155.5552   286.8061 H6            1 RES     
    7663 H6        -282.0393  -154.6505   287.3744 H6            1 RES     
    7664 H6        -281.8608  -155.1596   285.6658 H6            1 RES     
    7665 H6        -281.8295  -152.2367   286.6763 H6            1 RES     
    7666 H6        -283.1567  -153.0882   285.8246 H6            1 RES     
    7667 H6        -281.6880  -153.3882   283.8042 H6            1 RES     
    7668 H6        -281.9307  -151.6553   284.2454 H6            1 RES     
    7669 H6        -280.3768  -152.4524   284.6327 H6            1 RES     
    7670 H6        -278.8112  -151.2636   291.0841 H6            1 RES     
    7671 H6        -280.0567  -151.4129   289.8124 H6            1 RES     
    7672 H6        -278.0080  -151.4500   288.1255 H6            1 RES     
    7673 H6        -276.9713  -151.1062   289.5175 H6            1 RES     
    7674 H6        -277.5204  -149.1536   288.1484 H6            1 RES     
    7675 H6        -279.2847  -149.3790   288.4031 H6            1 RES     
    7676 H6        -277.2308  -148.7141   290.6321 H6            1 RES     
    7677 H6        -279.0100  -148.9180   290.8338 H6            1 RES     
    7678 H6        -279.4231  -146.9693   289.3022 H6            1 RES     
    7679 H6        -278.4943  -146.5615   290.7886 H6            1 RES     
    7680 H6        -277.2536  -146.9887   287.9939 H6            1 RES     
    7681 H6        -276.3469  -146.5789   289.4937 H6            1 RES     
    7682 H6        -276.7170  -144.6443   287.9743 H6            1 RES     
    7683 H6        -278.5003  -144.8513   288.0852 H6            1 RES     
    7684 H6        -278.3901  -144.2993   290.5424 H6            1 RES     
    7685 H6        -277.6554  -143.0080   289.5368 H6            1 RES     
    7686 H6        -276.5862  -144.1604   290.4189 H6            1 RES     
    7687 C0        -273.8331  -162.5141   301.5738 C0            1 RES     
    7688 C0        -273.2083  -163.9503   301.7970 C0            1 RES     
    7689 C0        -272.6057  -164.3967   300.6695 C0            1 RES     
    7690 S1        -271.8796  -165.9014   300.8296 S1            1 RES     
    7691 C0        -272.3259  -166.0555   302.4620 C0            1 RES     
    7692 C0        -273.1112  -164.9459   302.8059 C0            1 RES     
    7693 C0        -272.8282  -163.4774   299.6162 C0            1 RES     
    7694 C0        -273.5142  -162.4557   300.0758 C0            1 RES     
    7695 C0        -273.9424  -161.6011   299.0041 C0            1 RES     
    7696 C0        -273.5355  -162.0839   297.7735 C0            1 RES     
    7697 S1        -272.5328  -163.5779   297.8601 S1            1 RES     
    7698 H2        -273.5414  -164.8740   303.7711 H2            1 RES     
    7699 H2        -274.6010  -160.7943   299.1291 H2            1 RES     
    7700 N3        -271.6267  -167.9116   305.7036 N3            1 RES     
    7701 C0        -272.0952  -166.9955   304.8103 C0            1 RES     
    7702 C0        -271.8762  -167.1325   303.4136 C0            1 RES     
    7703 C0        -271.1587  -168.2771   303.0042 C0            1 RES     
    7704 N3        -270.8589  -168.5809   301.7145 N3            1 RES     
    7705 S1        -270.0302  -170.0011   301.8630 S1            1 RES     
    7706 N3        -270.0050  -170.2802   303.4875 N3            1 RES     
    7707 C0        -270.6890  -169.2110   303.9739 C0            1 RES     
    7708 C0        -270.9292  -169.0094   305.3218 C0            1 RES     
    7709 H4        -272.6095  -166.1470   305.2115 H4            1 RES     
    7710 C5        -264.8341  -167.6406   305.1244 C5            1 RES     
    7711 C5        -266.0128  -167.8234   304.1684 C5            1 RES     
    7712 C5        -267.2851  -167.0935   304.6314 C5            1 RES     
    7713 C5        -267.1447  -165.5601   304.6313 C5            1 RES     
    7714 C5        -268.4583  -164.8896   305.0615 C5            1 RES     
    7715 C5        -268.3778  -163.3534   304.9225 C5            1 RES     
    7716 C5        -269.6826  -162.5947   305.2835 C5            1 RES     
    7717 C5        -270.8799  -163.1925   304.5426 C5            1 RES     
    7718 C5        -272.1711  -162.3415   304.4453 C5            1 RES     
    7719 C5        -273.0380  -162.1015   305.7412 C5            1 RES     
    7720 C5        -273.7367  -163.4522   306.0608 C5            1 RES     
    7721 C5        -274.7377  -163.7565   307.1816 C5            1 RES     
    7722 C5        -275.1155  -165.2604   306.9750 C5            1 RES     
    7723 C5        -276.1144  -165.8904   307.9441 C5            1 RES     
    7724 C5        -277.5360  -165.3751   307.7568 C5            1 RES     
    7725 C5        -272.0795  -161.2657   303.3534 C5            1 RES     
    7726 C0        -273.3795  -161.1921   302.4519 C0            1 RES     
    7727 C5        -273.4808  -159.7373   301.8195 C5            1 RES     
    7728 C5        -274.8062  -158.9284   302.0422 C5            1 RES     
    7729 C5        -275.9165  -159.2131   300.9897 C5            1 RES     
    7730 C5        -275.7080  -158.5377   299.6134 C5            1 RES     
    7731 C5        -276.6617  -159.0627   298.5222 C5            1 RES     
    7732 C5        -278.1354  -158.6589   298.6856 C5            1 RES     
    7733 C5        -278.4013  -157.1436   298.5966 C5            1 RES     
    7734 C5        -277.9542  -156.5295   297.2662 C5            1 RES     
    7735 C5        -274.5673  -157.3852   302.2691 C5            1 RES     
    7736 C5        -273.5847  -156.6691   301.3017 C5            1 RES     
    7737 C5        -273.5720  -155.1287   301.4241 C5            1 RES     
    7738 C5        -273.1292  -154.5834   302.7964 C5            1 RES     
    7739 C5        -273.0769  -153.0364   302.8437 C5            1 RES     
    7740 C5        -271.9803  -152.4269   301.9426 C5            1 RES     
    7741 C5        -271.9282  -150.8874   301.9735 C5            1 RES     
    7742 C5        -271.5515  -150.3071   303.3366 C5            1 RES     
    7743 H6        -264.5213  -166.5786   305.1794 H6            1 RES     
    7744 H6        -263.9683  -168.2333   304.7607 H6            1 RES     
    7745 H6        -265.1067  -167.9991   306.1398 H6            1 RES     
    7746 H6        -265.7255  -167.4810   303.1502 H6            1 RES     
    7747 H6        -266.2393  -168.9107   304.1136 H6            1 RES     
    7748 H6        -268.1010  -167.3684   303.9259 H6            1 RES     
    7749 H6        -267.5695  -167.4529   305.6440 H6            1 RES     
    7750 H6        -266.8868  -165.2357   303.5982 H6            1 RES     
    7751 H6        -266.3389  -165.2352   305.3209 H6            1 RES     
    7752 H6        -269.2538  -165.2775   304.3902 H6            1 RES     
    7753 H6        -268.7023  -165.1680   306.1090 H6            1 RES     
    7754 H6        -267.5477  -162.9555   305.5448 H6            1 RES     
    7755 H6        -268.1411  -163.1303   303.8578 H6            1 RES     
    7756 H6        -269.8820  -162.6273   306.3761 H6            1 RES     
    7757 H6        -269.5339  -161.5352   304.9826 H6            1 RES     
    7758 H6        -271.1057  -164.1754   304.9966 H6            1 RES     
    7759 H6        -270.5643  -163.4056   303.4959 H6            1 RES     
    7760 H6        -272.7921  -162.9700   303.9179 H6            1 RES     
    7761 H6        -272.4119  -161.7202   306.5750 H6            1 RES     
    7762 H6        -273.8412  -161.3623   305.5269 H6            1 RES     
    7763 H6        -274.3619  -163.6385   305.1674 H6            1 RES     
    7764 H6        -272.9235  -164.1876   306.1820 H6            1 RES     
    7765 H6        -275.6332  -163.1049   307.0869 H6            1 RES     
    7766 H6        -274.2701  -163.6102   308.1773 H6            1 RES     
    7767 H6        -275.5075  -165.4201   305.9426 H6            1 RES     
    7768 H6        -274.1814  -165.8573   307.0665 H6            1 RES     
    7769 H6        -275.7718  -165.7554   308.9900 H6            1 RES     
    7770 H6        -276.1376  -166.9829   307.7242 H6            1 RES     
    7771 H6        -277.8742  -165.5552   306.7120 H6            1 RES     
    7772 H6        -277.5979  -164.2939   307.9866 H6            1 RES     
    7773 H6        -278.2136  -165.9334   308.4376 H6            1 RES     
    7774 H6        -271.2558  -161.4712   302.6359 H6            1 RES     
    7775 H6        -271.8215  -160.3220   303.8808 H6            1 RES     
    7776 H6        -272.7544  -159.1326   302.3948 H6            1 RES     
    7777 H6        -273.0779  -159.6699   300.7894 H6            1 RES     
    7778 H6        -275.2216  -159.2860   303.0115 H6            1 RES     
    7779 H6        -275.9978  -160.3152   300.8858 H6            1 RES     
    7780 H6        -276.8889  -158.8488   301.3859 H6            1 RES     
    7781 H6        -275.8166  -157.4394   299.6932 H6            1 RES     
    7782 H6        -274.6746  -158.7279   299.2677 H6            1 RES     
    7783 H6        -276.3010  -158.7047   297.5365 H6            1 RES     
    7784 H6        -276.6095  -160.1702   298.4874 H6            1 RES     
    7785 H6        -278.5225  -159.0436   299.6524 H6            1 RES     
    7786 H6        -278.7112  -159.1554   297.8741 H6            1 RES     
    7787 H6        -277.9071  -156.6082   299.4332 H6            1 RES     
    7788 H6        -279.4965  -156.9871   298.6968 H6            1 RES     
    7789 H6        -278.4407  -157.0509   296.4142 H6            1 RES     
    7790 H6        -278.2396  -155.4575   297.2371 H6            1 RES     
    7791 H6        -276.8522  -156.5832   297.1485 H6            1 RES     
    7792 H6        -274.1335  -157.2540   303.2839 H6            1 RES     
    7793 H6        -275.5559  -156.8765   302.2716 H6            1 RES     
    7794 H6        -273.8346  -156.8700   300.2514 H6            1 RES     
    7795 H6        -272.5545  -157.0537   301.4588 H6            1 RES     
    7796 H6        -272.8697  -154.7666   300.6472 H6            1 RES     
    7797 H6        -274.5839  -154.7336   301.1844 H6            1 RES     
    7798 H6        -272.1292  -154.9875   303.0656 H6            1 RES     
    7799 H6        -273.8611  -154.9186   303.5591 H6            1 RES     
    7800 H6        -274.0698  -152.6206   302.5645 H6            1 RES     
    7801 H6        -272.8663  -152.7467   303.8964 H6            1 RES     
    7802 H6        -272.1722  -152.7082   300.8883 H6            1 RES     
    7803 H6        -270.9876  -152.8317   302.2376 H6            1 RES     
    7804 H6        -271.1559  -150.5575   301.2437 H6            1 RES     
    7805 H6        -272.9058  -150.4694   301.6502 H6            1 RES     
    7806 H6        -272.3185  -150.5450   304.1005 H6            1 RES     
    7807 H6        -271.4817  -149.2009   303.2568 H6            1 RES     
    7808 H6        -270.5651  -150.6988   303.6641 H6            1 RES     
    7809 C0        -270.1812  -171.3670   310.1098 C0            1 RES     
    7810 C0        -269.8517  -172.9017   309.9118 C0            1 RES     
    7811 C0        -269.5318  -173.1659   308.6229 C0            1 RES     
    7812 S1        -269.1285  -174.7687   308.3310 S1            1 RES     
    7813 C0        -269.3512  -175.2256   309.9525 C0            1 RES     
    7814 C0        -269.8217  -174.1096   310.6592 C0            1 RES     
    7815 C0        -269.7057  -171.9983   307.8414 C0            1 RES     
    7816 C0        -270.0820  -171.0112   308.6223 C0            1 RES     
    7817 C0        -270.4711  -169.8651   307.8494 C0            1 RES     
    7818 C0        -270.3631  -170.1054   306.4917 C0            1 RES     
    7819 S1        -269.7014  -171.7290   306.0783 S1            1 RES     
    7820 H2        -270.0792  -174.1949   311.6831 H2            1 RES     
    7821 H2        -270.9162  -169.0086   308.2600 H2            1 RES     
    7822 N3        -268.5939  -177.8915   312.5528 N3            1 RES     
    7823 C0        -268.9825  -176.7220   311.9714 C0            1 RES     
    7824 C0        -269.0066  -176.5594   310.5607 C0            1 RES     
    7825 C0        -268.6189  -177.6815   309.7969 C0            1 RES     
    7826 N3        -268.5847  -177.7178   308.4394 N3            1 RES     
    7827 S1        -268.0660  -179.2552   308.1338 S1            1 RES     
    7828 N3        -267.8614  -179.9122   309.6319 N3            1 RES     
    7829 C0        -268.2216  -178.8863   310.4477 C0            1 RES     
    7830 C0        -268.2114  -178.9719   311.8289 C0            1 RES     
    7831 H4        -269.2386  -175.9165   312.6281 H4            1 RES     
    7832 C5        -262.0621  -178.6845   310.7484 C5            1 RES     
    7833 C5        -263.3807  -178.4256   310.0196 C5            1 RES     
    7834 C5        -264.3849  -177.6154   310.8568 C5            1 RES     
    7835 C5        -263.9217  -176.1749   311.1419 C5            1 RES     
    7836 C5        -264.9833  -175.4064   311.9434 C5            1 RES     
    7837 C5        -264.5979  -173.9197   312.1072 C5            1 RES     
    7838 C5        -265.6424  -173.0520   312.8586 C5            1 RES     
    7839 C5        -267.0358  -173.2376   312.2553 C5            1 RES     
    7840 C5        -268.1152  -172.1752   312.5829 C5            1 RES     
    7841 C5        -268.7097  -172.1020   314.0422 C5            1 RES     
    7842 C5        -269.6257  -173.3461   314.2082 C5            1 RES     
    7843 C5        -270.4919  -173.7278   315.4145 C5            1 RES     
    7844 C5        -271.2086  -175.0495   314.9825 C5            1 RES     
    7845 C5        -272.1647  -175.7067   315.9763 C5            1 RES     
    7846 C5        -273.4550  -174.9210   316.1741 C5            1 RES     
    7847 C5        -267.9581  -170.9040   311.7359 C5            1 RES     
    7848 C0        -269.3309  -170.3919   311.1348 C0            1 RES     
    7849 C5        -269.2112  -168.8339   310.8432 C5            1 RES     
    7850 C5        -270.2854  -167.8819   311.4760 C5            1 RES     
    7851 C5        -271.5738  -167.7095   310.6207 C5            1 RES     
    7852 C5        -271.4315  -166.7737   309.3968 C5            1 RES     
    7853 C5        -272.6257  -166.8491   308.4252 C5            1 RES     
    7854 C5        -273.9384  -166.2440   308.9471 C5            1 RES     
    7855 C5        -273.8845  -164.7285   309.2210 C5            1 RES     
    7856 C5        -273.5180  -163.9040   307.9830 C5            1 RES     
    7857 C5        -269.6914  -166.5031   311.9621 C5            1 RES     
    7858 C5        -268.7324  -165.7612   310.9905 C5            1 RES     
    7859 C5        -268.3728  -164.3208   311.4191 C5            1 RES     
    7860 C5        -267.6260  -164.2032   312.7627 C5            1 RES     
    7861 C5        -267.2379  -162.7456   313.1129 C5            1 RES     
    7862 C5        -266.1818  -162.1411   312.1614 C5            1 RES     
    7863 C5        -265.7979  -160.6866   312.4944 C5            1 RES     
    7864 C5        -265.1088  -160.5220   313.8489 C5            1 RES     
    7865 H6        -261.5251  -177.7375   310.9573 H6            1 RES     
    7866 H6        -261.4065  -179.3159   310.1125 H6            1 RES     
    7867 H6        -262.2521  -179.2204   311.7026 H6            1 RES     
    7868 H6        -263.1805  -177.9068   309.0566 H6            1 RES     
    7869 H6        -263.8398  -179.4118   309.7891 H6            1 RES     
    7870 H6        -265.3358  -177.5676   310.2801 H6            1 RES     
    7871 H6        -264.5868  -178.1495   311.8103 H6            1 RES     
    7872 H6        -263.7559  -175.6646   310.1665 H6            1 RES     
    7873 H6        -262.9723  -176.1693   311.7154 H6            1 RES     
    7874 H6        -265.9336  -175.4782   311.3726 H6            1 RES     
    7875 H6        -265.1238  -175.8785   312.9392 H6            1 RES     
    7876 H6        -263.6193  -173.8327   312.6263 H6            1 RES     
    7877 H6        -264.4789  -173.4950   311.0849 H6            1 RES     
    7878 H6        -265.6806  -173.3078   313.9392 H6            1 RES     
    7879 H6        -265.3168  -171.9943   312.7568 H6            1 RES     
    7880 H6        -267.3969  -174.2450   312.5345 H6            1 RES     
    7881 H6        -266.9311  -173.2478   311.1464 H6            1 RES     
    7882 H6        -268.9271  -172.5418   312.0678 H6            1 RES     
    7883 H6        -267.9004  -172.0454   314.8002 H6            1 RES     
    7884 H6        -269.3590  -171.2042   314.1411 H6            1 RES     
    7885 H6        -270.4013  -173.2025   313.4326 H6            1 RES     
    7886 H6        -268.9797  -174.2199   314.0189 H6            1 RES     
    7887 H6        -271.2313  -172.9259   315.6280 H6            1 RES     
    7888 H6        -269.8621  -173.9064   316.3104 H6            1 RES     
    7889 H6        -271.7738  -174.8882   314.0340 H6            1 RES     
    7890 H6        -270.4207  -175.8051   314.7696 H6            1 RES     
    7891 H6        -271.6505  -175.8862   316.9422 H6            1 RES     
    7892 H6        -272.4531  -176.6943   315.5473 H6            1 RES     
    7893 H6        -273.9744  -174.7856   315.1994 H6            1 RES     
    7894 H6        -273.2499  -173.9317   316.6268 H6            1 RES     
    7895 H6        -274.1282  -175.4975   316.8442 H6            1 RES     
    7896 H6        -267.3126  -171.0742   310.8472 H6            1 RES     
    7897 H6        -267.4294  -170.1728   312.3848 H6            1 RES     
    7898 H6        -268.2956  -168.5200   311.3793 H6            1 RES     
    7899 H6        -268.9599  -168.5954   309.7907 H6            1 RES     
    7900 H6        -270.6198  -168.3811   312.4136 H6            1 RES     
    7901 H6        -271.9033  -168.7236   310.3121 H6            1 RES     
    7902 H6        -272.3765  -167.2852   311.2618 H6            1 RES     
    7903 H6        -271.2898  -165.7242   309.7177 H6            1 RES     
    7904 H6        -270.5253  -167.0543   308.8279 H6            1 RES     
    7905 H6        -272.3466  -166.3361   307.4825 H6            1 RES     
    7906 H6        -272.8172  -167.9081   308.1564 H6            1 RES     
    7907 H6        -274.2516  -166.7735   309.8712 H6            1 RES     
    7908 H6        -274.7205  -166.4248   308.1774 H6            1 RES     
    7909 H6        -273.1693  -164.5023   310.0384 H6            1 RES     
    7910 H6        -274.8939  -164.4110   309.5593 H6            1 RES     
    7911 H6        -274.2251  -164.1147   307.1522 H6            1 RES     
    7912 H6        -273.5689  -162.8229   308.2280 H6            1 RES     
    7913 H6        -272.4828  -164.1204   307.6476 H6            1 RES     
    7914 H6        -269.0945  -166.6949   312.8798 H6            1 RES     
    7915 H6        -270.5369  -165.8446   312.2577 H6            1 RES     
    7916 H6        -269.1717  -165.6599   309.9892 H6            1 RES     
    7917 H6        -267.7965  -166.3464   310.8654 H6            1 RES     
    7918 H6        -267.7320  -163.9132   310.6122 H6            1 RES     
    7919 H6        -269.3010  -163.7091   311.4636 H6            1 RES     
    7920 H6        -266.7070  -164.8284   312.7469 H6            1 RES     
    7921 H6        -268.2917  -164.5765   313.5671 H6            1 RES     
    7922 H6        -268.1491  -162.1081   313.1200 H6            1 RES     
    7923 H6        -266.8171  -162.7557   314.1421 H6            1 RES     
    7924 H6        -266.5830  -162.1259   311.1287 H6            1 RES     
    7925 H6        -265.2661  -162.7718   312.1717 H6            1 RES     
    7926 H6        -265.0895  -160.3333   311.7126 H6            1 RES     
    7927 H6        -266.7004  -160.0393   312.4567 H6            1 RES     
    7928 H6        -265.7876  -160.7964   314.6811 H6            1 RES     
    7929 H6        -264.8168  -159.4584   313.9841 H6            1 RES     
    7930 H6        -264.1917  -161.1468   313.8943 H6            1 RES     
    7931 C0        -267.2856  -182.4928   315.8024 C0            1 RES     
    7932 C0        -267.3247  -183.9698   315.2368 C0            1 RES     
    7933 C0        -267.2626  -183.9721   313.8841 C0            1 RES     
    7934 S1        -267.2588  -185.5048   313.2003 S1            1 RES     
    7935 C0        -267.3320  -186.2875   314.7067 C0            1 RES     
    7936 C0        -267.4435  -185.3067   315.7027 C0            1 RES     
    7937 C0        -267.2965  -182.6404   313.4049 C0            1 RES     
    7938 C0        -267.3336  -181.8169   314.4276 C0            1 RES     
    7939 C0        -267.5785  -180.4701   313.9936 C0            1 RES     
    7940 C0        -267.7261  -180.3960   312.6204 C0            1 RES     
    7941 S1        -267.4951  -181.9650   311.7661 S1            1 RES     
    7942 H2        -267.5592  -185.5863   316.7178 H2            1 RES     
    7943 H2        -267.7647  -179.6714   314.6475 H2            1 RES     
    7944 N3        -266.7863  -189.5850   316.5154 N3            1 RES     
    7945 C0        -266.9976  -188.2614   316.2698 C0            1 RES     
    7946 C0        -267.1945  -187.7668   314.9531 C0            1 RES     
    7947 C0        -267.1726  -188.7253   313.9170 C0            1 RES     
    7948 N3        -267.3479  -188.4435   312.5998 N3            1 RES     
    7949 S1        -267.2207  -189.9307   311.8939 S1            1 RES     
    7950 N3        -266.9422  -190.9501   313.1592 N3            1 RES     
    7951 C0        -266.9503  -190.1006   314.2204 C0            1 RES     
    7952 C0        -266.7547  -190.5123   315.5271 C0            1 RES     
    7953 H4        -266.9757  -187.6030   317.1133 H4            1 RES     
    7954 C5        -260.9148  -191.0578   313.3682 C5            1 RES     
    7955 C5        -262.2404  -190.4065   312.9742 C5            1 RES     
    7956 C5        -262.9133  -189.6554   314.1356 C5            1 RES     
    7957 C5        -262.1160  -188.4279   314.6136 C5            1 RES     
    7958 C5        -262.8587  -187.6981   315.7433 C5            1 RES     
    7959 C5        -262.1445  -186.3840   316.1291 C5            1 RES     
    7960 C5        -262.8568  -185.5505   317.2276 C5            1 RES     
    7961 C5        -264.3311  -185.3405   316.8780 C5            1 RES     
    7962 C5        -265.0980  -184.2143   317.6158 C5            1 RES     
    7963 C5        -265.4409  -184.3869   319.1459 C5            1 RES     
    7964 C5        -266.5669  -185.4547   319.2278 C5            1 RES     
    7965 C5        -267.3067  -185.9542   320.4744 C5            1 RES     
    7966 C5        -268.3451  -186.9890   319.9282 C5            1 RES     
    7967 C5        -269.2620  -187.6855   320.9321 C5            1 RES     
    7968 C5        -270.3109  -186.7558   321.5295 C5            1 RES     
    7969 C5        -264.7998  -182.8261   317.0313 C5            1 RES     
    7970 C0        -266.1048  -181.9536   316.8218 C0            1 RES     
    7971 C5        -265.6994  -180.4167   316.8360 C5            1 RES     
    7972 C5        -266.4398  -179.4693   317.8434 C5            1 RES     
    7973 C5        -267.7734  -178.8757   317.3045 C5            1 RES     
    7974 C5        -267.6168  -177.7158   316.2926 C5            1 RES     
    7975 C5        -268.9296  -177.3479   315.5737 C5            1 RES     
    7976 C5        -269.9909  -176.6639   316.4498 C5            1 RES     
    7977 C5        -269.5745  -175.2904   317.0109 C5            1 RES     
    7978 C5        -269.2273  -174.2727   315.9197 C5            1 RES     
    7979 C5        -265.4997  -178.3713   318.4767 C5            1 RES     
    7980 C5        -264.5586  -177.5996   317.5109 C5            1 RES     
    7981 C5        -263.8402  -176.3881   318.1466 C5            1 RES     
    7982 C5        -262.8955  -176.7257   319.3172 C5            1 RES     
    7983 C5        -262.1575  -175.4841   319.8756 C5            1 RES     
    7984 C5        -261.1490  -174.8655   318.8825 C5            1 RES     
    7985 C5        -260.4183  -173.6221   319.4245 C5            1 RES     
    7986 C5        -259.5176  -173.9073   320.6263 C5            1 RES     
    7987 H6        -260.1629  -190.2967   313.6585 H6            1 RES     
    7988 H6        -260.5105  -191.6249   312.5034 H6            1 RES     
    7989 H6        -261.0718  -191.7633   314.2118 H6            1 RES     
    7990 H6        -262.0784  -189.7171   312.1169 H6            1 RES     
    7991 H6        -262.9286  -191.2136   312.6403 H6            1 RES     
    7992 H6        -263.9065  -189.3062   313.7741 H6            1 RES     
    7993 H6        -263.0816  -190.3568   314.9811 H6            1 RES     
    7994 H6        -261.9910  -187.7377   313.7492 H6            1 RES     
    7995 H6        -261.1134  -188.7250   314.9832 H6            1 RES     
    7996 H6        -263.8760  -187.4647   315.3630 H6            1 RES     
    7997 H6        -262.9481  -188.3611   316.6302 H6            1 RES     
    7998 H6        -261.1043  -186.5955   316.4575 H6            1 RES     
    7999 H6        -262.0899  -185.7562   315.2113 H6            1 RES     
    8000 H6        -262.7887  -186.0450   318.2203 H6            1 RES     
    8001 H6        -262.3314  -184.5727   317.2826 H6            1 RES     
    8002 H6        -264.8538  -186.3062   317.0102 H6            1 RES     
    8003 H6        -264.3960  -185.1052   315.7912 H6            1 RES     
    8004 H6        -266.0365  -184.3000   317.2025 H6            1 RES     
    8005 H6        -264.5354  -184.6546   319.7298 H6            1 RES     
    8006 H6        -265.8615  -183.4389   319.5481 H6            1 RES     
    8007 H6        -267.3997  -184.9973   318.6612 H6            1 RES     
    8008 H6        -266.1577  -186.3577   318.7442 H6            1 RES     
    8009 H6        -267.8179  -185.1093   320.9845 H6            1 RES     
    8010 H6        -266.6043  -186.4480   321.1774 H6            1 RES     
    8011 H6        -268.9965  -186.5105   319.1589 H6            1 RES     
    8012 H6        -267.7771  -187.7983   319.4188 H6            1 RES     
    8013 H6        -268.6612  -188.1765   321.7242 H6            1 RES     
    8014 H6        -269.8149  -188.4767   320.3745 H6            1 RES     
    8015 H6        -270.9275  -186.3040   320.7209 H6            1 RES     
    8016 H6        -269.8345  -185.9541   322.1261 H6            1 RES     
    8017 H6        -270.9852  -187.3480   322.1846 H6            1 RES     
    8018 H6        -264.3440  -182.8905   316.0195 H6            1 RES     
    8019 H6        -264.0372  -182.3741   317.7016 H6            1 RES     
    8020 H6        -264.6689  -180.4044   317.2388 H6            1 RES     
    8021 H6        -265.5612  -179.9828   315.8258 H6            1 RES     
    8022 H6        -266.7309  -180.1104   318.7061 H6            1 RES     
    8023 H6        -268.3538  -179.7137   316.8651 H6            1 RES     
    8024 H6        -268.3632  -178.4821   318.1605 H6            1 RES     
    8025 H6        -267.2083  -176.8141   316.7872 H6            1 RES     
    8026 H6        -266.8857  -178.0074   315.5154 H6            1 RES     
    8027 H6        -268.6897  -176.6827   314.7195 H6            1 RES     
    8028 H6        -269.3806  -178.2624   315.1368 H6            1 RES     
    8029 H6        -270.2700  -177.3345   317.2894 H6            1 RES     
    8030 H6        -270.8984  -176.5169   315.8241 H6            1 RES     
    8031 H6        -268.7148  -175.3936   317.7044 H6            1 RES     
    8032 H6        -270.4315  -174.8907   317.5940 H6            1 RES     
    8033 H6        -270.0778  -174.1528   315.2150 H6            1 RES     
    8034 H6        -269.0091  -173.2890   316.3848 H6            1 RES     
    8035 H6        -268.3233  -174.5810   315.3551 H6            1 RES     
    8036 H6        -264.8287  -178.8771   319.2043 H6            1 RES     
    8037 H6        -266.1318  -177.6643   319.0568 H6            1 RES     
    8038 H6        -265.1091  -177.1880   316.6545 H6            1 RES     
    8039 H6        -263.7983  -178.2929   317.0921 H6            1 RES     
    8040 H6        -263.2535  -175.9192   317.3318 H6            1 RES     
    8041 H6        -264.5993  -175.6517   318.4919 H6            1 RES     
    8042 H6        -262.1439  -177.4802   318.9984 H6            1 RES     
    8043 H6        -263.4993  -177.1569   320.1412 H6            1 RES     
    8044 H6        -262.9001  -174.7172   320.1870 H6            1 RES     
    8045 H6        -261.6013  -175.8120   320.7809 H6            1 RES     
    8046 H6        -261.6856  -174.5354   317.9711 H6            1 RES     
    8047 H6        -260.3980  -175.6309   318.5883 H6            1 RES     
    8048 H6        -259.7741  -173.2229   318.6099 H6            1 RES     
    8049 H6        -261.1570  -172.8366   319.6932 H6            1 RES     
    8050 H6        -260.1088  -174.2483   321.4996 H6            1 RES     
    8051 H6        -258.9883  -172.9743   320.9165 H6            1 RES     
    8052 H6        -258.7588  -174.6756   320.3667 H6            1 RES     
    8053 C0        -266.0263  -194.9825   318.4477 C0            1 RES     
    8054 C0        -266.4632  -196.2525   317.6115 C0            1 RES     
    8055 C0        -266.6035  -195.9442   316.3005 C0            1 RES     
    8056 S1        -267.0284  -197.2469   315.3313 S1            1 RES     
    8057 C0        -267.0439  -198.3398   316.6323 C0            1 RES     
    8058 C0        -266.7948  -197.6197   317.8096 C0            1 RES     
    8059 C0        -266.4225  -194.5520   316.1179 C0            1 RES     
    8060 C0        -266.1312  -194.0016   317.2746 C0            1 RES     
    8061 C0        -266.1440  -192.5688   317.1789 C0            1 RES     
    8062 C0        -266.4736  -192.1460   315.9040 C0            1 RES     
    8063 S1        -266.7120  -193.4826   314.7202 S1            1 RES     
    8064 H2        -266.8163  -198.1077   318.7494 H2            1 RES     
    8065 H2        -266.0566  -191.9284   318.0051 H2            1 RES     
    8066 N3        -266.9544  -202.0156   317.5929 N3            1 RES     
    8067 C0        -266.9118  -200.6556   317.6671 C0            1 RES     
    8068 C0        -267.1907  -199.8357   316.5413 C0            1 RES     
    8069 C0        -267.5275  -200.5093   315.3474 C0            1 RES     
    8070 N3        -267.8312  -199.8964   314.1737 N3            1 RES     
    8071 S1        -268.1303  -201.1719   313.1689 S1            1 RES     
    8072 N3        -267.8924  -202.4953   314.1228 N3            1 RES     
    8073 C0        -267.5620  -201.9343   315.3160 C0            1 RES     
    8074 C0        -267.2681  -202.6724   316.4493 C0            1 RES     
    8075 H4        -266.6255  -200.2307   318.6067 H4            1 RES     
    8076 C5        -262.0640  -203.7033   313.1450 C5            1 RES     
    8077 C5        -263.2631  -202.7553   313.1536 C5            1 RES     
    8078 C5        -263.5809  -202.1957   314.5507 C5            1 RES     
    8079 C5        -262.4781  -201.2760   315.1064 C5            1 RES     
    8080 C5        -262.8724  -200.7170   316.4820 C5            1 RES     
    8081 C5        -261.8450  -199.6781   316.9829 C5            1 RES     
    8082 C5        -262.1925  -199.0180   318.3438 C5            1 RES     
    8083 C5        -263.6229  -198.4762   318.3338 C5            1 RES     
    8084 C5        -264.0138  -197.4411   319.4186 C5            1 RES     
    8085 C5        -264.1558  -197.9094   320.9182 C5            1 RES     
    8086 C5        -265.4592  -198.7520   320.9956 C5            1 RES     
    8087 C5        -266.0963  -199.3958   322.2328 C5            1 RES     
    8088 C5        -267.4008  -200.0729   321.6970 C5            1 RES     
    8089 C5        -268.2868  -200.8164   322.6949 C5            1 RES     
    8090 C5        -269.0128  -199.8863   323.6590 C5            1 RES     
    8091 C5        -263.5155  -196.0280   319.0827 C5            1 RES     
    8092 C0        -264.6202  -194.9162   319.3096 C0            1 RES     
    8093 C5        -263.8982  -193.5220   319.5582 C5            1 RES     
    8094 C5        -264.2619  -192.7265   320.8603 C5            1 RES     
    8095 C5        -265.5025  -191.7978   320.7196 C5            1 RES     
    8096 C5        -265.2528  -190.4767   319.9542 C5            1 RES     
    8097 C5        -266.5482  -189.7245   319.5907 C5            1 RES     
    8098 C5        -267.2974  -189.0932   320.7747 C5            1 RES     
    8099 C5        -266.5189  -187.9871   321.5130 C5            1 RES     
    8100 C5        -266.1273  -186.8163   320.6060 C5            1 RES     
    8101 C5        -263.0259  -191.9926   321.5114 C5            1 RES     
    8102 C5        -262.0949  -191.1905   320.5606 C5            1 RES     
    8103 C5        -261.0484  -190.3098   321.2797 C5            1 RES     
    8104 C5        -260.0353  -191.0759   322.1535 C5            1 RES     
    8105 C5        -258.9748  -190.1515   322.8007 C5            1 RES     
    8106 C5        -258.0154  -189.5011   321.7797 C5            1 RES     
    8107 C5        -256.9641  -188.5698   322.4129 C5            1 RES     
    8108 C5        -255.9778  -189.2855   323.3358 C5            1 RES     
    8109 H6        -261.1325  -203.1767   313.4343 H6            1 RES     
    8110 H6        -261.9226  -204.1104   312.1216 H6            1 RES     
    8111 H6        -262.2418  -204.5502   313.8413 H6            1 RES     
    8112 H6        -263.0861  -201.9213   312.4397 H6            1 RES     
    8113 H6        -264.1495  -203.3266   312.8008 H6            1 RES     
    8114 H6        -264.5188  -201.6022   314.4652 H6            1 RES     
    8115 H6        -263.7684  -203.0373   315.2519 H6            1 RES     
    8116 H6        -262.3375  -200.4331   314.3930 H6            1 RES     
    8117 H6        -261.5188  -201.8233   315.2084 H6            1 RES     
    8118 H6        -263.8611  -200.2256   316.3596 H6            1 RES     
    8119 H6        -262.9695  -201.5456   317.2157 H6            1 RES     
    8120 H6        -260.8372  -200.1404   317.0555 H6            1 RES     
    8121 H6        -261.7937  -198.8699   316.2190 H6            1 RES     
    8122 H6        -262.0858  -199.7382   319.1832 H6            1 RES     
    8123 H6        -261.4680  -198.1889   318.4948 H6            1 RES     
    8124 H6        -264.3145  -199.3387   318.3645 H6            1 RES     
    8125 H6        -263.7958  -197.9818   317.3507 H6            1 RES     
    8126 H6        -264.9994  -197.2604   319.1844 H6            1 RES     
    8127 H6        -263.2523  -198.4625   321.2506 H6            1 RES     
    8128 H6        -264.2999  -197.0255   321.5780 H6            1 RES     
    8129 H6        -266.2494  -198.0345   320.7045 H6            1 RES     
    8130 H6        -265.3285  -199.5715   320.2690 H6            1 RES     
    8131 H6        -266.3340  -198.6202   322.9925 H6            1 RES     
    8132 H6        -265.4197  -200.1576   322.6724 H6            1 RES     
    8133 H6        -268.0412  -199.3190   321.1808 H6            1 RES     
    8134 H6        -267.1005  -200.8246   320.9342 H6            1 RES     
    8135 H6        -267.6946  -201.5789   323.2402 H6            1 RES     
    8136 H6        -269.0722  -201.3430   322.1047 H6            1 RES     
    8137 H6        -269.6311  -199.1546   323.0929 H6            1 RES     
    8138 H6        -268.2933  -199.3454   324.3036 H6            1 RES     
    8139 H6        -269.6937  -200.4896   324.2969 H6            1 RES     
    8140 H6        -263.2386  -195.9291   318.0107 H6            1 RES     
    8141 H6        -262.5835  -195.8890   319.6719 H6            1 RES     
    8142 H6        -262.8409  -193.7865   319.7497 H6            1 RES     
    8143 H6        -263.8212  -192.8917   318.6501 H6            1 RES     
    8144 H6        -264.5526  -193.4930   321.6139 H6            1 RES     
    8145 H6        -266.3070  -192.3925   320.2386 H6            1 RES     
    8146 H6        -265.8615  -191.5218   321.7347 H6            1 RES     
    8147 H6        -264.5926  -189.8041   320.5341 H6            1 RES     
    8148 H6        -264.7239  -190.6987   319.0084 H6            1 RES     
    8149 H6        -266.3005  -188.9280   318.8600 H6            1 RES     
    8150 H6        -267.2436  -190.4155   319.0717 H6            1 RES     
    8151 H6        -267.5862  -189.8845   321.4978 H6            1 RES     
    8152 H6        -268.2348  -188.6452   320.3781 H6            1 RES     
    8153 H6        -265.6084  -188.4010   321.9929 H6            1 RES     
    8154 H6        -267.1749  -187.5936   322.3187 H6            1 RES     
    8155 H6        -267.0271  -186.3854   320.1170 H6            1 RES     
    8156 H6        -265.6378  -186.0251   321.2108 H6            1 RES     
    8157 H6        -265.4037  -187.1351   319.8276 H6            1 RES     
    8158 H6        -262.3786  -192.7661   321.9782 H6            1 RES     
    8159 H6        -263.3996  -191.3441   322.3335 H6            1 RES     
    8160 H6        -262.6650  -190.4974   319.9278 H6            1 RES     
    8161 H6        -261.5707  -191.8866   319.8716 H6            1 RES     
    8162 H6        -260.5019  -189.7710   320.4803 H6            1 RES     
    8163 H6        -261.5730  -189.5553   321.9067 H6            1 RES     
    8164 H6        -259.5179  -191.8527   321.5497 H6            1 RES     
    8165 H6        -260.5889  -191.5779   322.9728 H6            1 RES     
    8166 H6        -259.4821  -189.3626   323.3984 H6            1 RES     
    8167 H6        -258.3741  -190.7772   323.4965 H6            1 RES     
    8168 H6        -258.5978  -188.8752   321.0748 H6            1 RES     
    8169 H6        -257.4973  -190.2940   321.1973 H6            1 RES     
    8170 H6        -256.3770  -188.1077   321.5885 H6            1 RES     
    8171 H6        -257.4699  -187.7538   322.9725 H6            1 RES     
    8172 H6        -256.4925  -189.7152   324.2183 H6            1 RES     
    8173 H6        -255.2244  -188.5556   323.7028 H6            1 RES     
    8174 H6        -255.4475  -190.0908   322.7846 H6            1 RES     
    8175 C0        -267.0886  -207.7647   318.2037 C0            1 RES     
    8176 C0        -267.9053  -208.7030   317.2262 C0            1 RES     
    8177 C0        -268.1686  -208.0724   316.0572 C0            1 RES     
    8178 S1        -269.0004  -209.0125   314.9431 S1            1 RES     
    8179 C0        -269.0568  -210.3631   315.9727 C0            1 RES     
    8180 C0        -268.4885  -209.9983   317.2017 C0            1 RES     
    8181 C0        -267.7232  -206.7307   316.1305 C0            1 RES     
    8182 C0        -267.1535  -206.5305   317.2972 C0            1 RES     
    8183 C0        -266.8738  -205.1366   317.4994 C0            1 RES     
    8184 C0        -267.2900  -204.3720   316.4247 C0            1 RES     
    8185 S1        -267.9807  -205.3261   315.0618 S1            1 RES     
    8186 H2        -268.4747  -210.6841   318.0088 H2            1 RES     
    8187 H2        -266.5305  -204.7363   318.4061 H2            1 RES     
    8188 N3        -269.6140  -214.1190   316.1296 N3            1 RES     
    8189 C0        -269.2713  -212.8447   316.4695 C0            1 RES     
    8190 C0        -269.5317  -211.7451   315.6091 C0            1 RES     
    8191 C0        -270.1772  -212.0460   314.3903 C0            1 RES     
    8192 N3        -270.5128  -211.1285   313.4465 N3            1 RES     
    8193 S1        -271.2227  -212.0561   312.2796 S1            1 RES     
    8194 N3        -271.1348  -213.5888   312.8804 N3            1 RES     
    8195 C0        -270.5196  -213.3941   314.0768 C0            1 RES     
    8196 C0        -270.2262  -214.4200   314.9582 C0            1 RES     
    8197 H4        -268.7652  -212.7121   317.4032 H4            1 RES     
    8198 C5        -265.9092  -215.5313   310.5774 C5            1 RES     
    8199 C5        -266.8632  -214.4176   311.0087 C5            1 RES     
    8200 C5        -266.8442  -214.1591   312.5249 C5            1 RES     
    8201 C5        -265.5006  -213.6055   313.0340 C5            1 RES     
    8202 C5        -265.5587  -213.3292   314.5441 C5            1 RES     
    8203 C5        -264.2706  -212.6355   315.0393 C5            1 RES     
    8204 C5        -264.2641  -212.2672   316.5469 C5            1 RES     
    8205 C5        -265.5311  -211.4966   316.9221 C5            1 RES     
    8206 C5        -265.5272  -210.6969   318.2492 C5            1 RES     
    8207 C5        -265.5429  -211.4758   319.6209 C5            1 RES     
    8208 C5        -266.9702  -212.0709   319.7739 C5            1 RES     
    8209 C5        -267.5402  -212.8684   320.9528 C5            1 RES     
    8210 C5        -269.0238  -213.1596   320.5509 C5            1 RES     
    8211 C5        -269.8909  -213.9519   321.5278 C5            1 RES     
    8212 C5        -270.2508  -213.1652   322.7820 C5            1 RES     
    8213 C5        -264.7936  -209.3542   318.1187 C5            1 RES     
    8214 C0        -265.5892  -208.1523   318.7748 C0            1 RES     
    8215 C5        -264.5574  -207.0058   319.1587 C5            1 RES     
    8216 C5        -264.5463  -206.4914   320.6406 C5            1 RES     
    8217 C5        -265.5666  -205.3534   320.9326 C5            1 RES     
    8218 C5        -265.1562  -203.9529   320.4187 C5            1 RES     
    8219 C5        -266.3000  -202.9211   320.4714 C5            1 RES     
    8220 C5        -266.7138  -202.4680   321.8803 C5            1 RES     
    8221 C5        -265.6166  -201.7228   322.6650 C5            1 RES     
    8222 C5        -265.1222  -200.4573   321.9573 C5            1 RES     
    8223 C5        -263.0997  -206.1612   321.1779 C5            1 RES     
    8224 C5        -262.1696  -205.3320   320.2496 C5            1 RES     
    8225 C5        -260.8647  -204.8446   320.9184 C5            1 RES     
    8226 C5        -259.9210  -205.9615   321.4071 C5            1 RES     
    8227 C5        -258.6038  -205.4177   322.0131 C5            1 RES     
    8228 C5        -257.6892  -204.7218   320.9811 C5            1 RES     
    8229 C5        -256.3814  -204.1664   321.5769 C5            1 RES     
    8230 C5        -255.4455  -205.2422   322.1280 C5            1 RES     
    8231 H6        -264.8543  -215.2600   310.7836 H6            1 RES     
    8232 H6        -266.0107  -215.7020   309.4849 H6            1 RES     
    8233 H6        -266.1589  -216.4748   311.1077 H6            1 RES     
    8234 H6        -266.6194  -213.4821   310.4591 H6            1 RES     
    8235 H6        -267.8934  -214.7244   310.7238 H6            1 RES     
    8236 H6        -267.6356  -213.4076   312.7436 H6            1 RES     
    8237 H6        -267.1015  -215.0970   313.0628 H6            1 RES     
    8238 H6        -265.2900  -212.6553   312.4937 H6            1 RES     
    8239 H6        -264.6761  -214.3207   312.8364 H6            1 RES     
    8240 H6        -266.4265  -212.6574   314.7163 H6            1 RES     
    8241 H6        -265.7211  -214.2781   315.0985 H6            1 RES     
    8242 H6        -263.3855  -213.2709   314.8215 H6            1 RES     
    8243 H6        -264.1611  -211.6908   314.4605 H6            1 RES     
    8244 H6        -264.1909  -213.1734   317.1857 H6            1 RES     
    8245 H6        -263.3650  -211.6377   316.7217 H6            1 RES     
    8246 H6        -266.3787  -212.2070   316.9087 H6            1 RES     
    8247 H6        -265.7376  -210.7605   316.1121 H6            1 RES     
    8248 H6        -266.4749  -210.2961   318.2503 H6            1 RES     
    8249 H6        -264.7395  -212.2414   319.6541 H6            1 RES     
    8250 H6        -265.3957  -210.7627   320.4620 H6            1 RES     
    8251 H6        -267.6229  -211.1779   319.7920 H6            1 RES     
    8252 H6        -267.1264  -212.7042   318.8844 H6            1 RES     
    8253 H6        -267.4918  -212.2662   321.8858 H6            1 RES     
    8254 H6        -266.9847  -213.8192   321.0900 H6            1 RES     
    8255 H6        -269.5573  -212.2045   320.3317 H6            1 RES     
    8256 H6        -269.0071  -213.7493   319.6080 H6            1 RES     
    8257 H6        -269.4013  -214.9137   321.7824 H6            1 RES     
    8258 H6        -270.8489  -214.1774   321.0046 H6            1 RES     
    8259 H6        -270.7751  -212.2233   322.5060 H6            1 RES     
    8260 H6        -269.3452  -212.9274   323.3728 H6            1 RES     
    8261 H6        -270.9430  -213.7739   323.4022 H6            1 RES     
    8262 H6        -264.6634  -209.0535   317.0566 H6            1 RES     
    8263 H6        -263.7768  -209.5246   318.5339 H6            1 RES     
    8264 H6        -263.5646  -207.4891   319.0859 H6            1 RES     
    8265 H6        -264.4824  -206.2013   318.4004 H6            1 RES     
    8266 H6        -264.8795  -207.3518   321.2639 H6            1 RES     
    8267 H6        -266.5416  -205.6664   320.5041 H6            1 RES     
    8268 H6        -265.7044  -205.2679   322.0322 H6            1 RES     
    8269 H6        -264.2893  -203.5637   320.9857 H6            1 RES     
    8270 H6        -264.8326  -204.0330   319.3639 H6            1 RES     
    8271 H6        -265.9986  -202.0298   319.8844 H6            1 RES     
    8272 H6        -267.1959  -203.3363   319.9659 H6            1 RES     
    8273 H6        -267.0550  -203.3452   322.4690 H6            1 RES     
    8274 H6        -267.5818  -201.7816   321.7706 H6            1 RES     
    8275 H6        -264.7549  -202.3918   322.8668 H6            1 RES     
    8276 H6        -266.0470  -201.4234   323.6444 H6            1 RES     
    8277 H6        -265.9713  -199.7719   321.7481 H6            1 RES     
    8278 H6        -264.3910  -199.9307   322.6050 H6            1 RES     
    8279 H6        -264.6065  -200.7037   321.0062 H6            1 RES     
    8280 H6        -262.5710  -207.1245   321.3444 H6            1 RES     
    8281 H6        -263.2006  -205.6715   322.1709 H6            1 RES     
    8282 H6        -262.6655  -204.4196   319.8926 H6            1 RES     
    8283 H6        -261.9140  -205.9252   319.3459 H6            1 RES     
    8284 H6        -260.3399  -204.2356   320.1558 H6            1 RES     
    8285 H6        -261.1174  -204.1808   321.7747 H6            1 RES     
    8286 H6        -259.6765  -206.6509   320.5700 H6            1 RES     
    8287 H6        -260.4419  -206.5389   322.1977 H6            1 RES     
    8288 H6        -258.8368  -204.7172   322.8448 H6            1 RES     
    8289 H6        -258.0546  -206.2860   322.4385 H6            1 RES     
    8290 H6        -258.2219  -203.8543   320.5435 H6            1 RES     
    8291 H6        -257.4443  -205.4318   320.1612 H6            1 RES     
    8292 H6        -255.8375  -203.6319   320.7668 H6            1 RES     
    8293 H6        -256.6128  -203.4311   322.3773 H6            1 RES     
    8294 H6        -255.9041  -205.7723   322.9866 H6            1 RES     
    8295 H6        -254.5079  -204.7639   322.4843 H6            1 RES     
    8296 H6        -255.1870  -205.9736   321.3332 H6            1 RES     
    8297 C0        -270.8819  -219.7337   315.5716 C0            1 RES     
    8298 C0        -272.0156  -220.2550   314.5990 C0            1 RES     
    8299 C0        -272.3077  -219.3287   313.6555 C0            1 RES     
    8300 S1        -273.4764  -219.8166   312.5541 S1            1 RES     
    8301 C0        -273.6674  -221.3417   313.2786 C0            1 RES     
    8302 C0        -272.8591  -221.3847   314.4237 C0            1 RES     
    8303 C0        -271.5800  -218.1421   313.9135 C0            1 RES     
    8304 C0        -270.8148  -218.3278   314.9650 C0            1 RES     
    8305 C0        -270.2170  -217.0929   315.3892 C0            1 RES     
    8306 C0        -270.6142  -216.0343   314.5928 C0            1 RES     
    8307 S1        -271.6864  -216.5012   313.2227 S1            1 RES     
    8308 H2        -272.8732  -222.2341   315.0564 H2            1 RES     
    8309 H2        -269.6659  -216.9860   316.2753 H2            1 RES     
    8310 N3        -274.9850  -224.8701   312.7717 N3            1 RES     
    8311 C0        -274.3315  -223.7933   313.2916 C0            1 RES     
    8312 C0        -274.4750  -222.4926   312.7393 C0            1 RES     
    8313 C0        -275.3427  -222.3776   311.6318 C0            1 RES     
    8314 N3        -275.6101  -221.2180   310.9768 N3            1 RES     
    8315 S1        -276.6662  -221.7028   309.8039 S1            1 RES     
    8316 N3        -276.8202  -223.3253   310.0519 N3            1 RES     
    8317 C0        -276.0078  -223.5312   311.1221 C0            1 RES     
    8318 C0        -275.8134  -224.7721   311.7032 C0            1 RES     
    8319 H4        -273.6765  -223.9770   314.1179 H4            1 RES     
    8320 C5        -272.5292  -225.5493   306.4427 C5            1 RES     
    8321 C5        -273.1487  -224.4205   307.2666 C5            1 RES     
    8322 C5        -272.8512  -224.5371   308.7712 C5            1 RES     
    8323 C5        -271.3602  -224.3644   309.1148 C5            1 RES     
    8324 C5        -271.1343  -224.4489   310.6321 C5            1 RES     
    8325 C5        -269.6690  -224.1293   311.0015 C5            1 RES     
    8326 C5        -269.3613  -224.1367   312.5226 C5            1 RES     
    8327 C5        -270.3647  -223.2677   313.2828 C5            1 RES     
    8328 C5        -269.9940  -222.8195   314.7190 C5            1 RES     
    8329 C5        -269.9730  -223.8868   315.8804 C5            1 RES     
    8330 C5        -271.4559  -224.2418   316.1800 C5            1 RES     
    8331 C5        -272.0027  -225.1841   317.2590 C5            1 RES     
    8332 C5        -273.5569  -225.1071   317.0985 C5            1 RES     
    8333 C5        -274.4193  -225.9443   318.0415 C5            1 RES     
    8334 C5        -274.4134  -225.4275   319.4748 C5            1 RES     
    8335 C5        -269.0180  -221.6341   314.7262 C5            1 RES     
    8336 C0        -269.4326  -220.5023   315.7534 C0            1 RES     
    8337 C5        -268.1344  -219.6787   316.1573 C5            1 RES     
    8338 C5        -267.7949  -219.5411   317.6826 C5            1 RES     
    8339 C5        -268.4939  -218.3445   318.3904 C5            1 RES     
    8340 C5        -267.8742  -216.9562   318.1033 C5            1 RES     
    8341 C5        -268.7504  -215.7826   318.5834 C5            1 RES     
    8342 C5        -268.8451  -215.6119   320.1077 C5            1 RES     
    8343 C5        -267.5104  -215.2785   320.8021 C5            1 RES     
    8344 C5        -266.8671  -213.9877   320.2854 C5            1 RES     
    8345 C5        -266.2480  -219.6066   317.9881 C5            1 RES     
    8346 C5        -265.3098  -218.7567   317.0872 C5            1 RES     
    8347 C5        -263.8467  -218.6784   317.5781 C5            1 RES     
    8348 C5        -263.1020  -220.0269   317.6388 C5            1 RES     
    8349 C5        -261.6243  -219.8819   318.0786 C5            1 RES     
    8350 C5        -260.7448  -219.1320   317.0539 C5            1 RES     
    8351 C5        -259.2752  -218.9719   317.4880 C5            1 RES     
    8352 C5        -258.5199  -220.2945   317.6186 C5            1 RES     
    8353 H6        -271.4221  -225.5238   306.4935 H6            1 RES     
    8354 H6        -272.8251  -225.4350   305.3786 H6            1 RES     
    8355 H6        -272.8937  -226.5330   306.8077 H6            1 RES     
    8356 H6        -272.7946  -223.4389   306.8825 H6            1 RES     
    8357 H6        -274.2512  -224.4657   307.1282 H6            1 RES     
    8358 H6        -273.4226  -223.7324   309.2860 H6            1 RES     
    8359 H6        -273.2206  -225.5159   309.1461 H6            1 RES     
    8360 H6        -271.0337  -223.3650   308.7491 H6            1 RES     
    8361 H6        -270.7460  -225.1451   308.6214 H6            1 RES     
    8362 H6        -271.8033  -223.6960   311.1006 H6            1 RES     
    8363 H6        -271.4120  -225.4588   311.0024 H6            1 RES     
    8364 H6        -268.9822  -224.8396   310.4932 H6            1 RES     
    8365 H6        -269.4469  -223.1083   310.6171 H6            1 RES     
    8366 H6        -269.3900  -225.1671   312.9375 H6            1 RES     
    8367 H6        -268.3327  -223.7342   312.6460 H6            1 RES     
    8368 H6        -271.3370  -223.7948   313.2881 H6            1 RES     
    8369 H6        -270.5265  -222.3357   312.6946 H6            1 RES     
    8370 H6        -270.8234  -222.2708   314.9834 H6            1 RES     
    8371 H6        -269.3560  -224.7669   315.6023 H6            1 RES     
    8372 H6        -269.5543  -223.4311   316.8048 H6            1 RES     
    8373 H6        -271.8927  -223.2786   316.5044 H6            1 RES     
    8374 H6        -271.8735  -224.6083   315.2271 H6            1 RES     
    8375 H6        -271.6894  -224.8388   318.2679 H6            1 RES     
    8376 H6        -271.6492  -226.2224   317.0906 H6            1 RES     
    8377 H6        -273.9004  -224.0490   317.1848 H6            1 RES     
    8378 H6        -273.8061  -225.4494   316.0700 H6            1 RES     
    8379 H6        -274.1145  -227.0094   317.9963 H6            1 RES     
    8380 H6        -275.4699  -225.8676   317.6771 H6            1 RES     
    8381 H6        -274.7592  -224.3702   319.5022 H6            1 RES     
    8382 H6        -273.4009  -225.4993   319.9167 H6            1 RES     
    8383 H6        -275.1204  -226.0352   320.0792 H6            1 RES     
    8384 H6        -268.9849  -221.1173   313.7426 H6            1 RES     
    8385 H6        -268.0112  -222.0735   314.8950 H6            1 RES     
    8386 H6        -267.2898  -220.2970   315.7986 H6            1 RES     
    8387 H6        -268.0021  -218.7430   315.5787 H6            1 RES     
    8388 H6        -268.2084  -220.4530   318.1698 H6            1 RES     
    8389 H6        -269.5655  -218.3711   318.1024 H6            1 RES     
    8390 H6        -268.4462  -218.4999   319.4899 H6            1 RES     
    8391 H6        -266.8701  -216.8708   318.5605 H6            1 RES     
    8392 H6        -267.7346  -216.8388   317.0122 H6            1 RES     
    8393 H6        -268.3556  -214.8444   318.1433 H6            1 RES     
    8394 H6        -269.7789  -215.9023   318.1854 H6            1 RES     
    8395 H6        -269.2750  -216.5301   320.5598 H6            1 RES     
    8396 H6        -269.5528  -214.7780   320.3086 H6            1 RES     
    8397 H6        -266.7914  -216.1164   320.6943 H6            1 RES     
    8398 H6        -267.7174  -215.1497   321.8860 H6            1 RES     
    8399 H6        -267.5714  -213.1345   320.3870 H6            1 RES     
    8400 H6        -265.9528  -213.7665   320.8741 H6            1 RES     
    8401 H6        -266.5622  -214.0875   319.2232 H6            1 RES     
    8402 H6        -265.9187  -220.6591   317.8505 H6            1 RES     
    8403 H6        -266.0941  -219.3569   319.0605 H6            1 RES     
    8404 H6        -265.6465  -217.7133   317.0252 H6            1 RES     
    8405 H6        -265.3232  -219.1535   316.0497 H6            1 RES     
    8406 H6        -263.3225  -218.0072   316.8691 H6            1 RES     
    8407 H6        -263.8225  -218.2033   318.5838 H6            1 RES     
    8408 H6        -263.1368  -220.5295   316.6479 H6            1 RES     
    8409 H6        -263.6115  -220.6751   318.3803 H6            1 RES     
    8410 H6        -261.5767  -219.3693   319.0644 H6            1 RES     
    8411 H6        -261.2167  -220.9088   318.2049 H6            1 RES     
    8412 H6        -261.1384  -218.1059   316.9126 H6            1 RES     
    8413 H6        -260.7811  -219.6584   316.0752 H6            1 RES     
    8414 H6        -258.7554  -218.3639   316.7147 H6            1 RES     
    8415 H6        -259.2233  -218.4190   318.4505 H6            1 RES     
    8416 H6        -258.9492  -220.9247   318.4230 H6            1 RES     
    8417 H6        -257.4596  -220.0864   317.8781 H6            1 RES     
    8418 H6        -258.5440  -220.8498   316.6570 H6            1 RES     
    8419 C0        -277.4916  -229.8801   311.3365 C0            1 RES     
    8420 C0        -278.8414  -229.9486   310.5141 C0            1 RES     
    8421 C0        -279.0649  -228.7883   309.8528 C0            1 RES     
    8422 S1        -280.4604  -228.7882   308.9204 S1            1 RES     
    8423 C0        -280.8637  -230.3840   309.3422 C0            1 RES     
    8424 C0        -279.9233  -230.8387   310.2777 C0            1 RES     
    8425 C0        -278.0705  -227.8433   310.2024 C0            1 RES     
    8426 C0        -277.2159  -228.4045   311.0273 C0            1 RES     
    8427 C0        -276.3121  -227.4301   311.5712 C0            1 RES     
    8428 C0        -276.5871  -226.1598   311.0983 C0            1 RES     
    8429 S1        -277.9246  -226.0927   309.8936 S1            1 RES     
    8430 H2        -280.0249  -231.7980   310.7150 H2            1 RES     
    8431 H2        -275.6262  -227.6348   312.3380 H2            1 RES     
    8432 N3        -282.9650  -233.4041   308.3903 N3            1 RES     
    8433 C0        -282.0270  -232.6132   308.9831 C0            1 RES     
    8434 C0        -281.9693  -231.2141   308.7452 C0            1 RES     
    8435 C0        -282.9461  -230.6892   307.8718 C0            1 RES     
    8436 N3        -283.0533  -229.3788   307.5303 N3            1 RES     
    8437 S1        -284.3500  -229.3785   306.5082 S1            1 RES     
    8438 N3        -284.8088  -230.9607   306.4456 N3            1 RES     
    8439 C0        -283.9102  -231.5540   307.2753 C0            1 RES     
    8440 C0        -283.9019  -232.9117   307.5433 C0            1 RES     
    8441 H4        -281.3117  -233.0997   309.6134 H4            1 RES     
    8442 C5        -281.6734  -232.9796   301.7044 C5            1 RES     
    8443 C5        -281.9088  -231.9884   302.8440 C5            1 RES     
    8444 C5        -281.4242  -232.5093   304.2077 C5            1 RES     
    8445 C5        -279.8967  -232.6870   304.2867 C5            1 RES     
    8446 C5        -279.4725  -233.1677   305.6829 C5            1 RES     
    8447 C5        -277.9346  -233.2067   305.8214 C5            1 RES     
    8448 C5        -277.4144  -233.6290   307.2213 C5            1 RES     
    8449 C5        -278.0854  -232.8036   308.3205 C5            1 RES     
    8450 C5        -277.4196  -232.7814   309.7194 C5            1 RES     
    8451 C5        -277.4558  -234.0807   310.6133 C5            1 RES     
    8452 C5        -278.9194  -234.2315   311.1132 C5            1 RES     
    8453 C5        -279.4894  -235.2923   312.0622 C5            1 RES     
    8454 C5        -280.9975  -234.9085   312.2220 C5            1 RES     
    8455 C5        -281.8699  -235.7814   313.1225 C5            1 RES     
    8456 C5        -281.5421  -235.6291   314.6026 C5            1 RES     
    8457 C5        -276.2226  -231.8214   309.7803 C5            1 RES     
    8458 C0        -276.2294  -230.9114   311.0765 C0            1 RES     
    8459 C5        -274.7401  -230.4478   311.3828 C5            1 RES     
    8460 C5        -274.1576  -230.7382   312.8100 C5            1 RES     
    8461 C5        -274.4723  -229.6406   313.8672 C5            1 RES     
    8462 C5        -273.6197  -228.3544   313.7552 C5            1 RES     
    8463 C5        -274.1441  -227.1936   314.6232 C5            1 RES     
    8464 C5        -273.9738  -227.3761   316.1395 C5            1 RES     
    8465 C5        -272.5112  -227.4562   316.6180 C5            1 RES     
    8466 C5        -271.6904  -226.2128   316.2611 C5            1 RES     
    8467 C5        -272.6327  -231.1441   312.7932 C5            1 RES     
    8468 C5        -271.6782  -230.2824   311.9212 C5            1 RES     
    8469 C5        -270.1760  -230.5803   312.1277 C5            1 RES     
    8470 C5        -269.7361  -232.0136   311.7686 C5            1 RES     
    8471 C5        -268.2132  -232.2383   311.9368 C5            1 RES     
    8472 C5        -267.3549  -231.4324   310.9369 C5            1 RES     
    8473 C5        -265.8375  -231.6399   311.1042 C5            1 RES     
    8474 C5        -265.3715  -233.0669   310.8155 C5            1 RES     
    8475 H6        -280.5914  -233.1612   301.5459 H6            1 RES     
    8476 H6        -282.0919  -232.5659   300.7628 H6            1 RES     
    8477 H6        -282.1817  -233.9424   301.9246 H6            1 RES     
    8478 H6        -281.4138  -231.0212   302.6071 H6            1 RES     
    8479 H6        -283.0035  -231.8056   302.9136 H6            1 RES     
    8480 H6        -281.7279  -231.7627   304.9755 H6            1 RES     
    8481 H6        -281.9347  -233.4689   304.4394 H6            1 RES     
    8482 H6        -279.4218  -231.7024   304.0763 H6            1 RES     
    8483 H6        -279.5434  -233.4233   303.5362 H6            1 RES     
    8484 H6        -279.8885  -232.4425   306.4143 H6            1 RES     
    8485 H6        -279.9018  -234.1720   305.8861 H6            1 RES     
    8486 H6        -277.4983  -233.8849   305.0571 H6            1 RES     
    8487 H6        -277.5588  -232.1788   305.6175 H6            1 RES     
    8488 H6        -277.6011  -234.7070   307.4154 H6            1 RES     
    8489 H6        -276.3169  -233.4538   307.2243 H6            1 RES     
    8490 H6        -279.1362  -233.1382   308.4049 H6            1 RES     
    8491 H6        -278.1293  -231.7450   307.9765 H6            1 RES     
    8492 H6        -278.0642  -232.1748   310.2442 H6            1 RES     
    8493 H6        -277.0891  -234.9636   310.0487 H6            1 RES     
    8494 H6        -276.8175  -233.9382   311.5131 H6            1 RES     
    8495 H6        -279.0874  -233.3118   311.7045 H6            1 RES     
    8496 H6        -279.5417  -234.2822   310.2039 H6            1 RES     
    8497 H6        -278.9641  -235.2569   313.0410 H6            1 RES     
    8498 H6        -279.3948  -236.3063   311.6214 H6            1 RES     
    8499 H6        -281.0904  -233.8578   312.5862 H6            1 RES     
    8500 H6        -281.4632  -234.9476   311.2128 H6            1 RES     
    8501 H6        -281.8099  -236.8418   312.8038 H6            1 RES     
    8502 H6        -282.9219  -235.4376   312.9899 H6            1 RES     
    8503 H6        -281.6460  -234.5649   314.9105 H6            1 RES     
    8504 H6        -280.5144  -235.9800   314.8180 H6            1 RES     
    8505 H6        -282.2654  -236.2296   315.1949 H6            1 RES     
    8506 H6        -276.2255  -231.0998   308.9349 H6            1 RES     
    8507 H6        -275.3194  -232.4577   309.6598 H6            1 RES     
    8508 H6        -274.1096  -231.1012   310.7504 H6            1 RES     
    8509 H6        -274.4979  -229.4395   310.9923 H6            1 RES     
    8510 H6        -274.6799  -231.6527   313.1715 H6            1 RES     
    8511 H6        -275.5554  -229.4099   313.7910 H6            1 RES     
    8512 H6        -274.2971  -230.0586   314.8821 H6            1 RES     
    8513 H6        -272.5643  -228.5573   314.0189 H6            1 RES     
    8514 H6        -273.6209  -228.0075   312.7049 H6            1 RES     
    8515 H6        -273.6273  -226.2618   314.3159 H6            1 RES     
    8516 H6        -275.2216  -227.0334   314.4141 H6            1 RES     
    8517 H6        -274.5185  -228.2856   316.4692 H6            1 RES     
    8518 H6        -274.4494  -226.5031   316.6379 H6            1 RES     
    8519 H6        -272.0119  -228.3571   316.2060 H6            1 RES     
    8520 H6        -272.5234  -227.5544   317.7246 H6            1 RES     
    8521 H6        -272.1733  -225.2984   316.6676 H6            1 RES     
    8522 H6        -270.6734  -226.3015   316.6960 H6            1 RES     
    8523 H6        -271.5742  -226.1093   315.1626 H6            1 RES     
    8524 H6        -272.5600  -232.1747   312.3836 H6            1 RES     
    8525 H6        -272.2723  -231.1873   313.8440 H6            1 RES     
    8526 H6        -271.7894  -229.2118   312.1386 H6            1 RES     
    8527 H6        -271.9291  -230.4127   310.8469 H6            1 RES     
    8528 H6        -269.6311  -229.8625   311.4830 H6            1 RES     
    8529 H6        -269.9025  -230.3696   313.1853 H6            1 RES     
    8530 H6        -270.0235  -232.2524   310.7217 H6            1 RES     
    8531 H6        -270.2571  -232.7199   312.4463 H6            1 RES     
    8532 H6        -267.9121  -231.9911   312.9784 H6            1 RES     
    8533 H6        -268.0203  -233.3208   311.7708 H6            1 RES     
    8534 H6        -267.5367  -230.3496   311.0855 H6            1 RES     
    8535 H6        -267.6470  -231.6966   309.8971 H6            1 RES     
    8536 H6        -265.3198  -230.9663   310.3858 H6            1 RES     
    8537 H6        -265.5270  -231.3493   312.1309 H6            1 RES     
    8538 H6        -265.8019  -233.7849   311.5419 H6            1 RES     
    8539 H6        -264.2648  -233.1154   310.9035 H6            1 RES     
    8540 H6        -265.6554  -233.3648   309.7839 H6            1 RES     
    8541 C0        -286.6682  -237.4112   306.4736 C0            1 RES     
    8542 C0        -288.1077  -237.0449   305.9291 C0            1 RES     
    8543 C0        -288.1733  -235.7400   305.5733 C0            1 RES     
    8544 S1        -289.6586  -235.2741   304.9459 S1            1 RES     
    8545 C0        -290.3268  -236.8284   305.1034 C0            1 RES     
    8546 C0        -289.3776  -237.6497   305.7286 C0            1 RES     
    8547 C0        -286.9594  -235.0943   305.9105 C0            1 RES     
    8548 C0        -286.1323  -235.9761   306.4242 C0            1 RES     
    8549 C0        -284.9709  -235.3325   306.9713 C0            1 RES     
    8550 C0        -285.0348  -233.9584   306.8286 C0            1 RES     
    8551 S1        -286.4900  -233.3739   305.9423 S1            1 RES     
    8552 H2        -289.6162  -238.6524   305.9727 H2            1 RES     
    8553 H2        -284.2391  -235.8305   307.5342 H2            1 RES     
    8554 N3        -293.1419  -239.1199   303.9780 N3            1 RES     
    8555 C0        -291.9796  -238.6693   304.5282 C0            1 RES     
    8556 C0        -291.6599  -237.2862   304.5734 C0            1 RES     
    8557 C0        -292.6201  -236.4061   304.0292 C0            1 RES     
    8558 N3        -292.4940  -235.0541   303.9886 N3            1 RES     
    8559 S1        -293.8970  -234.5840   303.2562 S1            1 RES     
    8560 N3        -294.6874  -236.0005   302.9621 N3            1 RES     
    8561 C0        -293.8240  -236.9218   303.4655 C0            1 RES     
    8562 C0        -294.0665  -238.2842   303.4449 C0            1 RES     
    8563 H4        -291.2997  -239.4091   304.8970 H4            1 RES     
    8564 C5        -292.7915  -237.3523   297.3976 C5            1 RES     
    8565 C5        -292.6387  -236.6347   298.7387 C5            1 RES     
    8566 C5        -292.0805  -237.5412   299.8489 C5            1 RES     
    8567 C5        -290.6318  -237.9972   299.5955 C5            1 RES     
    8568 C5        -290.1187  -238.8625   300.7567 C5            1 RES     
    8569 C5        -288.6215  -239.2019   300.5867 C5            1 RES     
    8570 C5        -288.0026  -240.0290   301.7449 C5            1 RES     
    8571 C5        -288.3118  -239.3840   303.0970 C5            1 RES     
    8572 C5        -287.4575  -239.8117   304.3168 C5            1 RES     
    8573 C5        -287.6381  -241.2592   304.9174 C5            1 RES     
    8574 C5        -289.0098  -241.2657   305.6475 C5            1 RES     
    8575 C5        -289.6468  -242.4049   306.4522 C5            1 RES     
    8576 C5        -290.9975  -241.8120   306.9731 C5            1 RES     
    8577 C5        -291.8935  -242.7072   307.8273 C5            1 RES     
    8578 C5        -291.3258  -242.9707   309.2165 C5            1 RES     
    8579 C5        -286.0875  -239.1186   304.3409 C5            1 RES     
    8580 C0        -285.7081  -238.5558   305.7719 C0            1 RES     
    8581 C5        -284.1256  -238.4464   305.8745 C5            1 RES     
    8582 C5        -283.4143  -239.1648   307.0739 C5            1 RES     
    8583 C5        -283.3276  -238.3122   308.3727 C5            1 RES     
    8584 C5        -282.2459  -237.2060   308.3634 C5            1 RES     
    8585 C5        -282.3760  -236.2113   309.5336 C5            1 RES     
    8586 C5        -282.0267  -236.7756   310.9196 C5            1 RES     
    8587 C5        -280.5607  -237.2219   311.0820 C5            1 RES     
    8588 C5        -279.5551  -236.0929   310.8349 C5            1 RES     
    8589 C5        -282.0311  -239.8157   306.6825 C5            1 RES     
    8590 C5        -281.0539  -238.9524   305.8376 C5            1 RES     
    8591 C5        -279.6365  -239.5492   305.6869 C5            1 RES     
    8592 C5        -279.5710  -240.9103   304.9661 C5            1 RES     
    8593 C5        -278.1236  -241.4317   304.7896 C5            1 RES     
    8594 C5        -277.2702  -240.5744   303.8289 C5            1 RES     
    8595 C5        -275.8245  -241.0781   303.6561 C5            1 RES     
    8596 C5        -275.7222  -242.4546   302.9991 C5            1 RES     
    8597 H6        -291.8088  -237.6776   297.0009 H6            1 RES     
    8598 H6        -293.2463  -236.6600   296.6581 H6            1 RES     
    8599 H6        -293.4555  -238.2355   297.5106 H6            1 RES     
    8600 H6        -291.9889  -235.7410   298.6131 H6            1 RES     
    8601 H6        -293.6464  -236.2849   299.0527 H6            1 RES     
    8602 H6        -292.1009  -236.9570   300.7962 H6            1 RES     
    8603 H6        -292.7444  -238.4237   299.9740 H6            1 RES     
    8604 H6        -289.9939  -237.0897   299.5027 H6            1 RES     
    8605 H6        -290.5588  -238.5843   298.6573 H6            1 RES     
    8606 H6        -290.2573  -238.2705   301.6863 H6            1 RES     
    8607 H6        -290.7179  -239.7951   300.8298 H6            1 RES     
    8608 H6        -288.4579  -239.7448   299.6310 H6            1 RES     
    8609 H6        -288.0689  -238.2371   300.5280 H6            1 RES     
    8610 H6        -288.3845  -241.0724   301.7476 H6            1 RES     
    8611 H6        -286.9049  -240.0545   301.5728 H6            1 RES     
    8612 H6        -289.3856  -239.5397   303.3115 H6            1 RES     
    8613 H6        -288.1788  -238.2832   302.9905 H6            1 RES     
    8614 H6        -287.8728  -239.2439   305.0677 H6            1 RES     
    8615 H6        -287.5560  -242.0328   304.1253 H6            1 RES     
    8616 H6        -286.8584  -241.4485   305.6879 H6            1 RES     
    8617 H6        -288.8882  -240.4979   306.4347 H6            1 RES     
    8618 H6        -289.7559  -240.9891   304.8836 H6            1 RES     
    8619 H6        -288.9874  -242.6956   307.2983 H6            1 RES     
    8620 H6        -289.8372  -243.2855   305.8044 H6            1 RES     
    8621 H6        -290.8089  -240.8784   307.5544 H6            1 RES     
    8622 H6        -291.6046  -241.5281   306.0856 H6            1 RES     
    8623 H6        -292.1092  -243.6551   307.2940 H6            1 RES     
    8624 H6        -292.8555  -242.1630   307.9718 H6            1 RES     
    8625 H6        -291.1532  -242.0088   309.7486 H6            1 RES     
    8626 H6        -290.3765  -243.5371   309.1546 H6            1 RES     
    8627 H6        -292.0651  -243.5585   309.8017 H6            1 RES     
    8628 H6        -286.0609  -238.2277   303.6767 H6            1 RES     
    8629 H6        -285.3690  -239.8560   303.9224 H6            1 RES     
    8630 H6        -283.7498  -239.0309   305.0135 H6            1 RES     
    8631 H6        -283.7339  -237.4326   305.6584 H6            1 RES     
    8632 H6        -284.0607  -240.0331   307.3351 H6            1 RES     
    8633 H6        -284.3354  -237.8840   308.5543 H6            1 RES     
    8634 H6        -283.0978  -238.9833   309.2284 H6            1 RES     
    8635 H6        -281.2311  -237.6472   308.3727 H6            1 RES     
    8636 H6        -282.3281  -236.6248   307.4258 H6            1 RES     
    8637 H6        -281.7232  -235.3385   309.3290 H6            1 RES     
    8638 H6        -283.4132  -235.8198   309.5722 H6            1 RES     
    8639 H6        -282.6983  -237.6275   311.1555 H6            1 RES     
    8640 H6        -282.2257  -235.9767   311.6670 H6            1 RES     
    8641 H6        -280.3319  -238.0723   310.4072 H6            1 RES     
    8642 H6        -280.4300  -237.5764   312.1267 H6            1 RES     
    8643 H6        -279.7659  -235.2312   311.5039 H6            1 RES     
    8644 H6        -278.5276  -236.4590   311.0392 H6            1 RES     
    8645 H6        -279.5830  -235.7533   309.7790 H6            1 RES     
    8646 H6        -282.2416  -240.7159   306.0656 H6            1 RES     
    8647 H6        -281.5371  -240.1697   307.6135 H6            1 RES     
    8648 H6        -280.9004  -237.9617   306.2856 H6            1 RES     
    8649 H6        -281.4828  -238.7778   304.8278 H6            1 RES     
    8650 H6        -279.0521  -238.8055   305.1095 H6            1 RES     
    8651 H6        -279.1712  -239.6469   306.6927 H6            1 RES     
    8652 H6        -280.0542  -240.8395   303.9675 H6            1 RES     
    8653 H6        -280.1250  -241.6550   305.5730 H6            1 RES     
    8654 H6        -277.6261  -241.4956   305.7822 H6            1 RES     
    8655 H6        -278.1932  -242.4603   304.3729 H6            1 RES     
    8656 H6        -277.1924  -239.5433   304.2269 H6            1 RES     
    8657 H6        -277.7624  -240.5286   302.8329 H6            1 RES     
    8658 H6        -275.2868  -240.3545   303.0041 H6            1 RES     
    8659 H6        -275.3110  -241.0988   304.6414 H6            1 RES     
    8660 H6        -276.1839  -243.2378   303.6329 H6            1 RES     
    8661 H6        -274.6508  -242.7156   302.8614 H6            1 RES     
    8662 H6        -276.2123  -242.4444   302.0025 H6            1 RES     
    8663 C0        -297.8573  -241.8447   302.0329 C0            1 RES     
    8664 C0        -299.2496  -241.1134   301.8609 C0            1 RES     
    8665 C0        -299.0867  -239.7706   301.7975 C0            1 RES     
    8666 S1        -300.5140  -238.9163   301.5750 S1            1 RES     
    8667 C0        -301.4682  -240.3218   301.5381 C0            1 RES     
    8668 C0        -300.6347  -241.4213   301.7890 C0            1 RES     
    8669 C0        -297.7267  -239.4462   302.0197 C0            1 RES     
    8670 C0        -297.0405  -240.5557   302.1748 C0            1 RES     
    8671 C0        -295.7006  -240.2741   302.6081 C0            1 RES     
    8672 C0        -295.4898  -238.9160   302.7631 C0            1 RES     
    8673 S1        -296.9010  -237.8922   302.3104 S1            1 RES     
    8674 H2        -301.0434  -242.3955   301.8650 H2            1 RES     
    8675 H2        -295.0172  -241.0117   302.9068 H2            1 RES     
    8676 N3        -304.8426  -241.7509   300.5314 N3            1 RES     
    8677 C0        -303.5426  -241.6546   300.9283 C0            1 RES     
    8678 C0        -302.9317  -240.3998   301.1919 C0            1 RES     
    8679 C0        -303.7512  -239.2615   301.0328 C0            1 RES     
    8680 N3        -303.3465  -237.9822   301.2447 N3            1 RES     
    8681 S1        -304.7091  -237.1134   300.9065 S1            1 RES     
    8682 N3        -305.8185  -238.2585   300.4875 N3            1 RES     
    8683 C0        -305.1072  -239.4095   300.6176 C0            1 RES     
    8684 C0        -305.6356  -240.6639   300.3670 C0            1 RES     
    8685 H4        -302.9897  -242.5682   301.0013 H4            1 RES     
    8686 C5        -305.0984  -238.5602   294.5062 C5            1 RES     
    8687 C5        -304.5994  -238.2199   295.9105 C5            1 RES     
    8688 C5        -304.0901  -239.4475   296.6848 C5            1 RES     
    8689 C5        -302.8260  -240.0767   296.0707 C5            1 RES     
    8690 C5        -302.3439  -241.2691   296.9109 C5            1 RES     
    8691 C5        -300.9958  -241.8152   296.3913 C5            1 RES     
    8692 C5        -300.4039  -242.9890   297.2162 C5            1 RES     
    8693 C5        -300.3649  -242.6397   298.7049 C5            1 RES     
    8694 C5        -299.4511  -243.4878   299.6250 C5            1 RES     
    8695 C5        -299.8462  -244.9818   299.9418 C5            1 RES     
    8696 C5        -301.0643  -244.9213   300.9046 C5            1 RES     
    8697 C5        -301.8040  -246.0893   301.5675 C5            1 RES     
    8698 C5        -302.9047  -245.4101   302.4475 C5            1 RES     
    8699 C5        -303.8351  -246.3115   303.2573 C5            1 RES     
    8700 C5        -303.1380  -246.9927   304.4285 C5            1 RES     
    8701 C5        -297.9765  -243.0712   299.5264 C5            1 RES     
    8702 C0        -297.2785  -242.9398   300.9420 C0            1 RES     
    8703 C5        -295.7118  -243.1367   300.7592 C5            1 RES     
    8704 C5        -295.0013  -244.2327   301.6280 C5            1 RES     
    8705 C5        -294.5435  -243.7417   303.0318 C5            1 RES     
    8706 C5        -293.2639  -242.8720   303.0404 C5            1 RES     
    8707 C5        -293.0042  -242.1768   304.3913 C5            1 RES     
    8708 C5        -292.5827  -243.1064   305.5401 C5            1 RES     
    8709 C5        -291.2384  -243.8281   305.3239 C5            1 RES     
    8710 C5        -290.0626  -242.8668   305.1235 C5            1 RES     
    8711 C5        -293.8624  -245.0038   300.8543 C5            1 RES     
    8712 C5        -292.8592  -244.1493   300.0313 C5            1 RES     
    8713 C5        -291.6402  -244.9319   299.4932 C5            1 RES     
    8714 C5        -291.9743  -246.0727   298.5115 C5            1 RES     
    8715 C5        -290.7140  -246.7823   297.9582 C5            1 RES     
    8716 C5        -289.8487  -245.8845   297.0466 C5            1 RES     
    8717 C5        -288.5857  -246.5779   296.5008 C5            1 RES     
    8718 C5        -288.8781  -247.7549   295.5702 C5            1 RES     
    8719 H6        -304.2775  -238.9488   293.8706 H6            1 RES     
    8720 H6        -305.4988  -237.6435   294.0244 H6            1 RES     
    8721 H6        -305.9117  -239.3147   294.5624 H6            1 RES     
    8722 H6        -303.7995  -237.4500   295.8471 H6            1 RES     
    8723 H6        -305.4514  -237.7838   296.4765 H6            1 RES     
    8724 H6        -303.8451  -239.1108   297.7171 H6            1 RES     
    8725 H6        -304.9013  -240.2042   296.7527 H6            1 RES     
    8726 H6        -302.0298  -239.2992   296.0439 H6            1 RES     
    8727 H6        -303.0195  -240.4275   295.0364 H6            1 RES     
    8728 H6        -302.2140  -240.9001   297.9506 H6            1 RES     
    8729 H6        -303.1111  -242.0727   296.9062 H6            1 RES     
    8730 H6        -301.0950  -242.1355   295.3320 H6            1 RES     
    8731 H6        -300.2647  -240.9762   296.4253 H6            1 RES     
    8732 H6        -300.9952  -243.9197   297.0797 H6            1 RES     
    8733 H6        -299.3747  -243.1647   296.8351 H6            1 RES     
    8734 H6        -301.4034  -242.6515   299.0852 H6            1 RES     
    8735 H6        -300.0170  -241.5860   298.8013 H6            1 RES     
    8736 H6        -299.6199  -243.0509   300.5413 H6            1 RES     
    8737 H6        -300.0492  -245.5472   299.0081 H6            1 RES     
    8738 H6        -299.0199  -245.4823   300.4933 H6            1 RES     
    8739 H6        -300.6666  -244.3960   301.7933 H6            1 RES     
    8740 H6        -301.8385  -244.3449   300.3707 H6            1 RES     
    8741 H6        -301.1044  -246.6836   302.1942 H6            1 RES     
    8742 H6        -302.2718  -246.7435   300.8029 H6            1 RES     
    8743 H6        -302.4372  -244.6892   303.1594 H6            1 RES     
    8744 H6        -303.5614  -244.8217   301.7697 H6            1 RES     
    8745 H6        -304.3247  -247.0528   302.5938 H6            1 RES     
    8746 H6        -304.6264  -245.6574   303.6914 H6            1 RES     
    8747 H6        -302.6872  -246.2302   305.1021 H6            1 RES     
    8748 H6        -302.3515  -247.6853   304.0717 H6            1 RES     
    8749 H6        -303.8911  -247.5638   305.0126 H6            1 RES     
    8750 H6        -297.8585  -242.0668   299.0649 H6            1 RES     
    8751 H6        -297.5021  -243.8022   298.8367 H6            1 RES     
    8752 H6        -295.6010  -243.5565   299.7414 H6            1 RES     
    8753 H6        -295.1488  -242.1854   300.6828 H6            1 RES     
    8754 H6        -295.7725  -245.0111   301.8260 H6            1 RES     
    8755 H6        -295.3984  -243.1992   303.4867 H6            1 RES     
    8756 H6        -294.3387  -244.6265   303.6726 H6            1 RES     
    8757 H6        -292.3769  -243.4735   302.7648 H6            1 RES     
    8758 H6        -293.3576  -242.0796   302.2743 H6            1 RES     
    8759 H6        -292.2175  -241.4086   304.2473 H6            1 RES     
    8760 H6        -293.9164  -241.6303   304.7071 H6            1 RES     
    8761 H6        -293.3785  -243.8588   305.7221 H6            1 RES     
    8762 H6        -292.4938  -242.4857   306.4585 H6            1 RES     
    8763 H6        -291.2989  -244.5204   304.4591 H6            1 RES     
    8764 H6        -291.0337  -244.4379   306.2297 H6            1 RES     
    8765 H6        -289.9832  -242.1654   305.9816 H6            1 RES     
    8766 H6        -289.1185  -243.4450   305.0480 H6            1 RES     
    8767 H6        -290.1729  -242.2866   304.1842 H6            1 RES     
    8768 H6        -294.3492  -245.6805   300.1192 H6            1 RES     
    8769 H6        -293.3235  -245.6497   301.5812 H6            1 RES     
    8770 H6        -292.4330  -243.3360   300.6336 H6            1 RES     
    8771 H6        -293.3851  -243.6675   299.1797 H6            1 RES     
    8772 H6        -291.0022  -244.1866   298.9781 H6            1 RES     
    8773 H6        -291.0632  -245.3457   300.3497 H6            1 RES     
    8774 H6        -292.5733  -245.6832   297.6599 H6            1 RES     
    8775 H6        -292.5788  -246.8313   299.0489 H6            1 RES     
    8776 H6        -290.1007  -247.1663   298.8027 H6            1 RES     
    8777 H6        -291.0626  -247.6540   297.3621 H6            1 RES     
    8778 H6        -289.4943  -245.0074   297.6237 H6            1 RES     
    8779 H6        -290.4612  -245.5180   296.1941 H6            1 RES     
    8780 H6        -288.0082  -245.8258   295.9189 H6            1 RES     
    8781 H6        -287.9487  -246.9216   297.3440 H6            1 RES     
    8782 H6        -289.3978  -248.5729   296.1080 H6            1 RES     
    8783 H6        -287.9196  -248.1591   295.1793 H6            1 RES     
    8784 H6        -289.4964  -247.4226   294.7095 H6            1 RES     
    8785 C0        -310.2657  -243.0667   299.0142 C0            1 RES     
    8786 C0        -311.4793  -242.0832   299.2651 C0            1 RES     
    8787 C0        -311.0444  -240.8137   299.4462 C0            1 RES     
    8788 S1        -312.2730  -239.6946   299.6804 S1            1 RES     
    8789 C0        -313.5003  -240.8617   299.5419 C0            1 RES     
    8790 C0        -312.8933  -242.1178   299.3992 C0            1 RES     
    8791 C0        -309.6289  -240.7947   299.4646 C0            1 RES     
    8792 C0        -309.1805  -242.0117   299.2560 C0            1 RES     
    8793 C0        -307.7625  -242.0803   299.4723 C0            1 RES     
    8794 C0        -307.2458  -240.8564   299.8570 C0            1 RES     
    8795 S1        -308.4566  -239.5235   299.9015 S1            1 RES     
    8796 H2        -313.4849  -242.9951   299.3523 H2            1 RES     
    8797 H2        -307.2160  -242.9756   299.4777 H2            1 RES     
    8798 N3        -317.2129  -241.3972   298.9320 N3            1 RES     
    8799 C0        -315.8783  -241.6271   299.0833 C0            1 RES     
    8800 C0        -314.9813  -240.5977   299.4745 C0            1 RES     
    8801 C0        -315.5530  -239.3288   299.7107 C0            1 RES     
    8802 N3        -314.8574  -238.2277   300.0969 N3            1 RES     
    8803 S1        -316.0376  -237.0786   300.2105 S1            1 RES     
    8804 N3        -317.4155  -237.8789   299.7880 N3            1 RES     
    8805 C0        -316.9553  -239.1342   299.5422 C0            1 RES     
    8806 C0        -317.7706  -240.1806   299.1477 C0            1 RES     
    8807 H4        -315.5289  -242.6141   298.8614 H4            1 RES     
    8808 C5        -317.6679  -236.8725   293.8459 C5            1 RES     
    8809 C5        -316.9060  -236.9683   295.1676 C5            1 RES     
    8810 C5        -316.5622  -238.4143   295.5635 C5            1 RES     
    8811 C5        -315.5666  -239.0909   294.6032 C5            1 RES     
    8812 C5        -315.2318  -240.5143   295.0747 C5            1 RES     
    8813 C5        -314.1234  -241.1487   294.2060 C5            1 RES     
    8814 C5        -313.6808  -242.5698   294.6455 C5            1 RES     
    8815 C5        -313.3486  -242.5966   296.1384 C5            1 RES     
    8816 C5        -312.5116  -243.7855   296.6738 C5            1 RES     
    8817 C5        -313.1655  -245.2190   296.7497 C5            1 RES     
    8818 C5        -314.1867  -245.1766   297.9202 C5            1 RES     
    8819 C5        -315.0528  -246.3205   298.4608 C5            1 RES     
    8820 C5        -315.8405  -245.6879   299.6551 C5            1 RES     
    8821 C5        -316.8119  -246.5786   300.4277 C5            1 RES     
    8822 C5        -316.1114  -247.6297   301.2797 C5            1 RES     
    8823 C5        -311.0131  -243.6222   296.3810 C5            1 RES     
    8824 C0        -310.1019  -243.9552   297.6328 C0            1 RES     
    8825 C5        -308.6581  -244.3742   297.1166 C5            1 RES     
    8826 C5        -308.0778  -245.7522   297.5913 C5            1 RES     
    8827 C5        -307.3235  -245.6967   298.9512 C5            1 RES     
    8828 C5        -305.9007  -245.0918   298.8909 C5            1 RES     
    8829 C5        -305.3018  -244.7939   300.2796 C5            1 RES     
    8830 C5        -304.9238  -246.0289   301.1124 C5            1 RES     
    8831 C5        -303.8118  -246.9025   300.5000 C5            1 RES     
    8832 C5        -302.5005  -246.1422   300.2777 C5            1 RES     
    8833 C5        -307.2571  -246.5046   296.4730 C5            1 RES     
    8834 C5        -306.2273  -245.6683   295.6643 C5            1 RES     
    8835 C5        -305.2969  -246.5017   294.7545 C5            1 RES     
    8836 C5        -306.0083  -247.3000   293.6439 C5            1 RES     
    8837 C5        -305.0247  -248.0672   292.7264 C5            1 RES     
    8838 C5        -304.1318  -247.1443   291.8680 C5            1 RES     
    8839 C5        -303.1410  -247.8983   290.9605 C5            1 RES     
    8840 C5        -303.8123  -248.7507   289.8836 C5            1 RES     
    8841 H6        -317.0523  -237.2365   292.9990 H6            1 RES     
    8842 H6        -317.9299  -235.8120   293.6468 H6            1 RES     
    8843 H6        -318.6063  -237.4642   293.9023 H6            1 RES     
    8844 H6        -315.9784  -236.3577   295.1100 H6            1 RES     
    8845 H6        -317.5519  -236.5369   295.9633 H6            1 RES     
    8846 H6        -316.1011  -238.3808   296.5761 H6            1 RES     
    8847 H6        -317.4972  -239.0114   295.6303 H6            1 RES     
    8848 H6        -314.6356  -238.4812   294.5830 H6            1 RES     
    8849 H6        -315.9812  -239.1466   293.5760 H6            1 RES     
    8850 H6        -314.8739  -240.4314   296.1231 H6            1 RES     
    8851 H6        -316.1450  -241.1466   295.0539 H6            1 RES     
    8852 H6        -314.4441  -241.1857   293.1428 H6            1 RES     
    8853 H6        -313.2331  -240.4832   294.2692 H6            1 RES     
    8854 H6        -314.4709  -243.3231   294.4385 H6            1 RES     
    8855 H6        -312.7808  -242.8274   294.0464 H6            1 RES     
    8856 H6        -314.2978  -242.5163   296.7004 H6            1 RES     
    8857 H6        -312.7732  -241.6736   296.3786 H6            1 RES     
    8858 H6        -312.4459  -243.5561   297.6748 H6            1 RES     
    8859 H6        -313.6203  -245.5019   295.7771 H6            1 RES     
    8860 H6        -312.3931  -245.9729   297.0188 H6            1 RES     
    8861 H6        -313.5591  -244.9555   298.8039 H6            1 RES     
    8862 H6        -314.8901  -244.3635   297.6734 H6            1 RES     
    8863 H6        -314.4115  -247.1597   298.8072 H6            1 RES     
    8864 H6        -315.7572  -246.6821   297.6833 H6            1 RES     
    8865 H6        -315.1299  -245.2501   300.3955 H6            1 RES     
    8866 H6        -316.4490  -244.8497   299.2501 H6            1 RES     
    8867 H6        -317.5412  -247.0435   299.7337 H6            1 RES     
    8868 H6        -317.3722  -245.9182   301.1294 H6            1 RES     
    8869 H6        -315.4137  -247.1401   301.9950 H6            1 RES     
    8870 H6        -315.5526  -248.3444   300.6452 H6            1 RES     
    8871 H6        -316.8744  -248.1823   301.8687 H6            1 RES     
    8872 H6        -310.7527  -242.5736   296.1197 H6            1 RES     
    8873 H6        -310.8130  -244.2398   295.4789 H6            1 RES     
    8874 H6        -308.7911  -244.5529   296.0328 H6            1 RES     
    8875 H6        -307.9224  -243.5457   297.1289 H6            1 RES     
    8876 H6        -308.9597  -246.4079   297.7710 H6            1 RES     
    8877 H6        -307.9660  -245.1367   299.6624 H6            1 RES     
    8878 H6        -307.2201  -246.7301   299.3470 H6            1 RES     
    8879 H6        -305.2134  -245.7564   298.3338 H6            1 RES     
    8880 H6        -305.9350  -244.1363   298.3347 H6            1 RES     
    8881 H6        -304.3992  -244.1635   300.1467 H6            1 RES     
    8882 H6        -306.0193  -244.1871   300.8691 H6            1 RES     
    8883 H6        -305.8261  -246.6516   301.2867 H6            1 RES     
    8884 H6        -304.5696  -245.6696   302.1034 H6            1 RES     
    8885 H6        -304.1458  -247.3479   299.5404 H6            1 RES     
    8886 H6        -303.6107  -247.7361   301.2063 H6            1 RES     
    8887 H6        -302.1472  -245.6899   301.2290 H6            1 RES     
    8888 H6        -301.7235  -246.8421   299.9063 H6            1 RES     
    8889 H6        -302.6218  -245.3455   299.5151 H6            1 RES     
    8890 H6        -307.9804  -246.8913   295.7230 H6            1 RES     
    8891 H6        -306.7674  -247.3887   296.9361 H6            1 RES     
    8892 H6        -305.5530  -245.1089   296.3264 H6            1 RES     
    8893 H6        -306.7580  -244.9136   295.0457 H6            1 RES     
    8894 H6        -304.5976  -245.7789   294.2892 H6            1 RES     
    8895 H6        -304.7016  -247.2015   295.3818 H6            1 RES     
    8896 H6        -306.6292  -246.6206   293.0206 H6            1 RES     
    8897 H6        -306.6747  -248.0466   294.1215 H6            1 RES     
    8898 H6        -304.3897  -248.7421   293.3414 H6            1 RES     
    8899 H6        -305.6356  -248.6974   292.0437 H6            1 RES     
    8900 H6        -303.5170  -246.5055   292.5325 H6            1 RES     
    8901 H6        -304.7709  -246.4844   291.2416 H6            1 RES     
    8902 H6        -302.5085  -247.1427   290.4441 H6            1 RES     
    8903 H6        -302.4748  -248.5386   291.5779 H6            1 RES     
    8904 H6        -304.4095  -249.5690   290.3330 H6            1 RES     
    8905 H6        -303.0308  -249.2119   289.2421 H6            1 RES     
    8906 H6        -304.4655  -248.1204   289.2435 H6            1 RES     
    8907 C0        -322.9551  -241.3442   298.2483 C0            1 RES     
    8908 C0        -323.8798  -240.2517   298.9222 C0            1 RES     
    8909 C0        -323.1618  -239.1579   299.2710 C0            1 RES     
    8910 S1        -324.0745  -237.9291   299.9593 S1            1 RES     
    8911 C0        -325.5295  -238.7965   299.8244 C0            1 RES     
    8912 C0        -325.2329  -240.0689   299.3152 C0            1 RES     
    8913 C0        -321.7881  -239.3920   299.0209 C0            1 RES     
    8914 C0        -321.6460  -240.5838   298.4869 C0            1 RES     
    8915 C0        -320.2593  -240.9490   298.4085 C0            1 RES     
    8916 C0        -319.4420  -239.9615   298.9278 C0            1 RES     
    8917 S1        -320.3199  -238.4865   299.4742 S1            1 RES     
    8918 H2        -325.9985  -240.7925   299.2051 H2            1 RES     
    8919 H2        -319.9222  -241.9014   298.1266 H2            1 RES     
    8920 N3        -329.3191  -238.5131   299.8423 N3            1 RES     
    8921 C0        -328.0572  -239.0024   299.6846 C0            1 RES     
    8922 C0        -326.9132  -238.2689   300.0976 C0            1 RES     
    8923 C0        -327.1592  -237.0125   300.6923 C0            1 RES     
    8924 N3        -326.1952  -236.1740   301.1537 N3            1 RES     
    8925 S1        -327.0725  -234.8964   301.7231 S1            1 RES     
    8926 N3        -328.6365  -235.3194   301.4190 N3            1 RES     
    8927 C0        -328.4967  -236.5409   300.8392 C0            1 RES     
    8928 C0        -329.5659  -237.3043   300.4039 C0            1 RES     
    8929 H4        -327.9634  -239.9539   299.2036 H4            1 RES     
    8930 C5        -329.5429  -232.9020   295.9674 C5            1 RES     
    8931 C5        -328.6323  -233.4410   297.0706 C5            1 RES     
    8932 C5        -328.5509  -234.9769   297.0904 C5            1 RES     
    8933 C5        -327.8759  -235.5695   295.8398 C5            1 RES     
    8934 C5        -327.7871  -237.1001   295.9385 C5            1 RES     
    8935 C5        -326.9806  -237.6940   294.7626 C5            1 RES     
    8936 C5        -326.7920  -239.2337   294.8104 C5            1 RES     
    8937 C5        -326.2565  -239.6721   296.1745 C5            1 RES     
    8938 C5        -325.6231  -241.0818   296.2860 C5            1 RES     
    8939 C5        -326.5498  -242.3550   296.1925 C5            1 RES     
    8940 C5        -327.3540  -242.4137   297.5209 C5            1 RES     
    8941 C5        -328.3549  -243.4835   297.9732 C5            1 RES     
    8942 C5        -328.8040  -243.0248   299.3998 C5            1 RES     
    8943 C5        -329.8183  -243.8892   300.1467 C5            1 RES     
    8944 C5        -329.2406  -245.2186   300.6163 C5            1 RES     
    8945 C5        -324.1844  -241.1186   295.7505 C5            1 RES     
    8946 C0        -323.1908  -241.8937   296.7098 C0            1 RES     
    8947 C5        -321.9624  -242.4243   295.8518 C5            1 RES     
    8948 C5        -321.6264  -243.9553   295.9158 C5            1 RES     
    8949 C5        -320.6852  -244.3574   297.0879 C5            1 RES     
    8950 C5        -319.1909  -244.0143   296.8802 C5            1 RES     
    8951 C5        -318.3438  -244.1644   298.1591 C5            1 RES     
    8952 C5        -318.1197  -245.6084   298.6348 C5            1 RES     
    8953 C5        -317.3230  -246.4923   297.6556 C5            1 RES     
    8954 C5        -315.9271  -245.9427   297.3453 C5            1 RES     
    8955 C5        -321.1598  -244.5522   294.5315 C5            1 RES     
    8956 C5        -320.1061  -243.7414   293.7277 C5            1 RES     
    8957 C5        -319.5201  -244.4845   292.5060 C5            1 RES     
    8958 C5        -320.5417  -244.8588   291.4138 C5            1 RES     
    8959 C5        -319.8913  -245.5462   290.1881 C5            1 RES     
    8960 C5        -318.9586  -244.6168   289.3804 C5            1 RES     
    8961 C5        -318.2971  -245.2952   288.1655 C5            1 RES     
    8962 C5        -319.2865  -245.7361   287.0869 C5            1 RES     
    8963 H6        -329.1512  -233.1565   294.9621 H6            1 RES     
    8964 H6        -329.5986  -231.7956   296.0424 H6            1 RES     
    8965 H6        -330.5672  -233.3165   296.0812 H6            1 RES     
    8966 H6        -327.6146  -233.0063   296.9616 H6            1 RES     
    8967 H6        -329.0464  -233.1047   298.0463 H6            1 RES     
    8968 H6        -327.9489  -235.2661   297.9809 H6            1 RES     
    8969 H6        -329.5715  -235.3994   297.2124 H6            1 RES     
    8970 H6        -326.8495  -235.1452   295.7658 H6            1 RES     
    8971 H6        -328.4399  -235.3061   294.9217 H6            1 RES     
    8972 H6        -327.2690  -237.3326   296.8932 H6            1 RES     
    8973 H6        -328.8072  -237.5394   295.9650 H6            1 RES     
    8974 H6        -327.4553  -237.4207   293.7959 H6            1 RES     
    8975 H6        -325.9694  -237.2291   294.7879 H6            1 RES     
    8976 H6        -327.7466  -239.7660   294.6100 H6            1 RES     
    8977 H6        -326.0665  -239.4951   294.0101 H6            1 RES     
    8978 H6        -327.0729  -239.5627   296.9126 H6            1 RES     
    8979 H6        -325.4681  -238.9480   296.4826 H6            1 RES     
    8980 H6        -325.3628  -241.1120   297.2811 H6            1 RES     
    8981 H6        -327.1931  -242.3146   295.2885 H6            1 RES     
    8982 H6        -325.9252  -243.2745   296.1492 H6            1 RES     
    8983 H6        -326.5701  -242.5223   298.2939 H6            1 RES     
    8984 H6        -327.8959  -241.4550   297.5844 H6            1 RES     
    8985 H6        -327.8639  -244.4799   298.0120 H6            1 RES     
    8986 H6        -329.2272  -243.5209   297.2884 H6            1 RES     
    8987 H6        -327.9148  -242.9068   300.0635 H6            1 RES     
    8988 H6        -329.2723  -242.0211   299.2983 H6            1 RES     
    8989 H6        -330.7244  -244.0409   299.5257 H6            1 RES     
    8990 H6        -330.1146  -243.3268   301.0623 H6            1 RES     
    8991 H6        -328.3565  -245.0429   301.2689 H6            1 RES     
    8992 H6        -328.9475  -245.8486   299.7544 H6            1 RES     
    8993 H6        -330.0085  -245.7529   301.2157 H6            1 RES     
    8994 H6        -323.7475  -240.1003   295.6631 H6            1 RES     
    8995 H6        -324.2565  -241.5295   294.7204 H6            1 RES     
    8996 H6        -322.2891  -242.3143   294.8004 H6            1 RES     
    8997 H6        -321.0731  -241.7644   295.8911 H6            1 RES     
    8998 H6        -322.5915  -244.4701   296.1241 H6            1 RES     
    8999 H6        -321.0809  -243.8788   298.0080 H6            1 RES     
    9000 H6        -320.7478  -245.4569   297.2378 H6            1 RES     
    9001 H6        -318.7515  -244.6372   296.0781 H6            1 RES     
    9002 H6        -319.1020  -242.9632   296.5472 H6            1 RES     
    9003 H6        -317.3571  -243.6885   297.9867 H6            1 RES     
    9004 H6        -318.8200  -243.5990   298.9862 H6            1 RES     
    9005 H6        -319.0984  -246.0868   298.8485 H6            1 RES     
    9006 H6        -317.5545  -245.5625   299.5914 H6            1 RES     
    9007 H6        -317.8825  -246.6315   296.7078 H6            1 RES     
    9008 H6        -317.2026  -247.4918   298.1254 H6            1 RES     
    9009 H6        -315.3488  -245.7984   298.2829 H6            1 RES     
    9010 H6        -315.3812  -246.6593   296.6972 H6            1 RES     
    9011 H6        -315.9866  -244.9790   296.7986 H6            1 RES     
    9012 H6        -322.0517  -244.6168   293.8715 H6            1 RES     
    9013 H6        -320.8075  -245.5928   294.7022 H6            1 RES     
    9014 H6        -319.2376  -243.4823   294.3478 H6            1 RES     
    9015 H6        -320.5487  -242.7804   293.3892 H6            1 RES     
    9016 H6        -318.7590  -243.8058   292.0722 H6            1 RES     
    9017 H6        -319.0021  -245.4064   292.8517 H6            1 RES     
    9018 H6        -321.0882  -243.9529   291.0728 H6            1 RES     
    9019 H6        -321.2743  -245.5689   291.8483 H6            1 RES     
    9020 H6        -319.3316  -246.4483   290.5193 H6            1 RES     
    9021 H6        -320.7168  -245.8791   289.5215 H6            1 RES     
    9022 H6        -318.1303  -244.2719   290.0304 H6            1 RES     
    9023 H6        -319.5273  -243.7255   289.0360 H6            1 RES     
    9024 H6        -317.6010  -244.5612   287.7021 H6            1 RES     
    9025 H6        -317.6993  -246.1702   288.5001 H6            1 RES     
    9026 H6        -319.9717  -246.5203   287.4665 H6            1 RES     
    9027 H6        -318.7252  -246.1613   286.2272 H6            1 RES     
    9028 H6        -319.8772  -244.8676   286.7261 H6            1 RES     
    9029 C0        -334.9539  -237.2946   300.2984 C0            1 RES     
    9030 C0        -335.5139  -236.2489   301.3453 C0            1 RES     
    9031 C0        -334.5352  -235.4124   301.7650 C0            1 RES     
    9032 S1        -335.0524  -234.2420   302.8511 S1            1 RES     
    9033 C0        -336.6626  -234.7839   302.8242 C0            1 RES     
    9034 C0        -336.7233  -235.9307   302.0194 C0            1 RES     
    9035 C0        -333.2957  -235.8172   301.2137 C0            1 RES     
    9036 C0        -333.4919  -236.8539   300.4311 C0            1 RES     
    9037 C0        -332.2426  -237.4270   300.0154 C0            1 RES     
    9038 C0        -331.1656  -236.7500   300.5581 C0            1 RES     
    9039 S1        -331.6174  -235.3168   301.5514 S1            1 RES     
    9040 H2        -337.6336  -236.4618   301.9134 H2            1 RES     
    9041 H2        -332.1622  -238.3291   299.4863 H2            1 RES     
    9042 N3        -340.2590  -233.8538   303.6262 N3            1 RES     
    9043 C0        -339.1682  -234.5049   303.1331 C0            1 RES     
    9044 C0        -337.8458  -234.1025   303.4594 C0            1 RES     
    9045 C0        -337.7270  -233.0002   304.3332 C0            1 RES     
    9046 N3        -336.5487  -232.4774   304.7619 N3            1 RES     
    9047 S1        -337.0388  -231.2384   305.7369 S1            1 RES     
    9048 N3        -338.6844  -231.2965   305.6590 N3            1 RES     
    9049 C0        -338.8961  -232.3503   304.8269 C0            1 RES     
    9050 C0        -340.1560  -232.7891   304.4588 C0            1 RES     
    9051 H4        -339.3520  -235.3161   302.4596 H4            1 RES     
    9052 C5        -339.8483  -227.5330   301.0910 C5            1 RES     
    9053 C5        -338.9212  -228.4695   301.8658 C5            1 RES     
    9054 C5        -339.1679  -229.9559   301.5565 C5            1 RES     
    9055 C5        -338.8275  -230.3433   300.1057 C5            1 RES     
    9056 C5        -339.0542  -231.8447   299.8718 C5            1 RES     
    9057 C5        -338.5760  -232.2740   298.4673 C5            1 RES     
    9058 C5        -338.7159  -233.7895   298.1636 C5            1 RES     
    9059 C5        -338.0909  -234.6262   299.2813 C5            1 RES     
    9060 C5        -337.7641  -236.1105   298.9798 C5            1 RES     
    9061 C5        -338.9448  -237.1425   298.8088 C5            1 RES     
    9062 C5        -339.5378  -237.3734   300.2265 C5            1 RES     
    9063 C5        -340.6661  -238.3277   300.6351 C5            1 RES     
    9064 C5        -340.7911  -238.1497   302.1843 C5            1 RES     
    9065 C5        -341.8449  -238.9754   302.9200 C5            1 RES     
    9066 C5        -341.5018  -240.4583   302.9895 C5            1 RES     
    9067 C5        -336.4617  -236.2704   298.1822 C5            1 RES     
    9068 C0        -335.5262  -237.4129   298.7548 C0            1 RES     
    9069 C5        -334.5800  -237.9311   297.5873 C5            1 RES     
    9070 C5        -334.5733  -239.4679   297.2727 C5            1 RES     
    9071 C5        -333.5772  -240.2954   298.1356 C5            1 RES     
    9072 C5        -332.0916  -240.1798   297.7192 C5            1 RES     
    9073 C5        -331.1168  -240.7754   298.7540 C5            1 RES     
    9074 C5        -331.1386  -242.3074   298.8738 C5            1 RES     
    9075 C5        -330.7029  -243.0588   297.6009 C5            1 RES     
    9076 C5        -329.2833  -242.7044   297.1470 C5            1 RES     
    9077 C5        -334.4548  -239.7911   295.7326 C5            1 RES     
    9078 C5        -333.3827  -239.0100   294.9237 C5            1 RES     
    9079 C5        -333.1560  -239.5324   293.4871 C5            1 RES     
    9080 C5        -334.3838  -239.4517   292.5584 C5            1 RES     
    9081 C5        -334.0837  -239.9312   291.1168 C5            1 RES     
    9082 C5        -333.1038  -239.0146   290.3516 C5            1 RES     
    9083 C5        -332.7893  -239.4900   288.9202 C5            1 RES     
    9084 C5        -333.9983  -239.4819   287.9848 C5            1 RES     
    9085 H6        -339.6729  -227.6059   299.9989 H6            1 RES     
    9086 H6        -339.6546  -226.4839   301.3988 H6            1 RES     
    9087 H6        -340.9092  -227.7767   301.3124 H6            1 RES     
    9088 H6        -337.8617  -228.2064   301.6543 H6            1 RES     
    9089 H6        -339.1051  -228.3074   302.9504 H6            1 RES     
    9090 H6        -338.5169  -230.5492   302.2371 H6            1 RES     
    9091 H6        -340.2258  -230.2099   301.7835 H6            1 RES     
    9092 H6        -337.7565  -230.1000   299.9240 H6            1 RES     
    9093 H6        -339.4514  -229.7747   299.3861 H6            1 RES     
    9094 H6        -338.4625  -232.3844   300.6417 H6            1 RES     
    9095 H6        -340.1292  -232.0921   300.0037 H6            1 RES     
    9096 H6        -339.1188  -231.7001   297.6859 H6            1 RES     
    9097 H6        -337.4964  -232.0128   298.3921 H6            1 RES     
    9098 H6        -339.7810  -234.0833   298.0460 H6            1 RES     
    9099 H6        -338.1893  -233.9762   297.2028 H6            1 RES     
    9100 H6        -338.7469  -234.5540   300.1688 H6            1 RES     
    9101 H6        -337.1294  -234.1456   299.5732 H6            1 RES     
    9102 H6        -337.3722  -236.4213   299.8791 H6            1 RES     
    9103 H6        -339.6909  -236.7766   298.0725 H6            1 RES     
    9104 H6        -338.5446  -238.1202   298.4602 H6            1 RES     
    9105 H6        -338.6898  -237.7980   300.7962 H6            1 RES     
    9106 H6        -339.8468  -236.3776   300.5866 H6            1 RES     
    9107 H6        -340.3991  -239.3749   300.3753 H6            1 RES     
    9108 H6        -341.6176  -238.0480   300.1374 H6            1 RES     
    9109 H6        -339.8092  -238.3503   302.6748 H6            1 RES     
    9110 H6        -341.0438  -237.0846   302.3810 H6            1 RES     
    9111 H6        -342.8440  -238.8141   302.4668 H6            1 RES     
    9112 H6        -341.8756  -238.6037   303.9704 H6            1 RES     
    9113 H6        -340.5142  -240.6003   303.4821 H6            1 RES     
    9114 H6        -341.4807  -240.9069   301.9775 H6            1 RES     
    9115 H6        -342.2690  -240.9767   303.6036 H6            1 RES     
    9116 H6        -335.8351  -235.3532   298.2217 H6            1 RES     
    9117 H6        -336.7713  -236.4057   297.1234 H6            1 RES     
    9118 H6        -335.0273  -237.5190   296.6629 H6            1 RES     
    9119 H6        -333.5744  -237.4657   297.5887 H6            1 RES     
    9120 H6        -335.5846  -239.8403   297.5530 H6            1 RES     
    9121 H6        -333.7212  -239.9874   299.1922 H6            1 RES     
    9122 H6        -333.8505  -241.3706   298.0677 H6            1 RES     
    9123 H6        -331.9189  -240.6615   296.7380 H6            1 RES     
    9124 H6        -331.8303  -239.1120   297.5964 H6            1 RES     
    9125 H6        -330.0877  -240.4526   298.4959 H6            1 RES     
    9126 H6        -331.3336  -240.3483   299.7545 H6            1 RES     
    9127 H6        -332.1544  -242.6438   299.1694 H6            1 RES     
    9128 H6        -330.4418  -242.5897   299.6931 H6            1 RES     
    9129 H6        -331.4129  -242.8686   296.7700 H6            1 RES     
    9130 H6        -330.7308  -244.1465   297.8254 H6            1 RES     
    9131 H6        -328.5555  -242.8905   297.9656 H6            1 RES     
    9132 H6        -329.0049  -243.3307   296.2742 H6            1 RES     
    9133 H6        -329.2155  -241.6434   296.8297 H6            1 RES     
    9134 H6        -335.4273  -239.5399   295.2569 H6            1 RES     
    9135 H6        -334.3117  -240.8876   295.6171 H6            1 RES     
    9136 H6        -332.3971  -239.0618   295.4051 H6            1 RES     
    9137 H6        -333.6547  -237.9339   294.8792 H6            1 RES     
    9138 H6        -332.3401  -238.9142   293.0628 H6            1 RES     
    9139 H6        -332.8018  -240.5861   293.5319 H6            1 RES     
    9140 H6        -334.7684  -238.4094   292.5202 H6            1 RES     
    9141 H6        -335.1789  -240.1051   292.9715 H6            1 RES     
    9142 H6        -333.6871  -240.9698   291.1438 H6            1 RES     
    9143 H6        -335.0505  -239.9464   290.5675 H6            1 RES     
    9144 H6        -332.1342  -238.9846   290.8869 H6            1 RES     
    9145 H6        -333.5133  -237.9817   290.3115 H6            1 RES     
    9146 H6        -332.0288  -238.8006   288.4911 H6            1 RES     
    9147 H6        -332.3497  -240.5103   288.9486 H6            1 RES     
    9148 H6        -334.7716  -240.2013   288.3211 H6            1 RES     
    9149 H6        -333.6741  -239.7822   286.9652 H6            1 RES     
    9150 H6        -334.4364  -238.4629   287.9285 H6            1 RES     
    9151 C0        -345.3726  -231.8113   305.3934 C0            1 RES     
    9152 C0        -345.5352  -230.9627   306.7187 C0            1 RES     
    9153 C0        -344.3494  -230.4346   307.1041 C0            1 RES     
    9154 S1        -344.4383  -229.4838   308.4843 S1            1 RES     
    9155 C0        -346.1130  -229.7132   308.6572 C0            1 RES     
    9156 C0        -346.5356  -230.6071   307.6628 C0            1 RES     
    9157 C0        -343.3204  -230.9074   306.2546 C0            1 RES     
    9158 C0        -343.8470  -231.6777   305.3299 C0            1 RES     
    9159 C0        -342.8244  -232.3453   304.5744 C0            1 RES     
    9160 C0        -341.5595  -232.0160   305.0266 C0            1 RES     
    9161 S1        -341.5429  -230.8034   306.3586 S1            1 RES     
    9162 H2        -347.5438  -230.9299   307.6276 H2            1 RES     
    9163 H2        -343.0177  -233.0957   303.8674 H2            1 RES     
    9164 N3        -349.2687  -228.3853   310.3066 N3            1 RES     
    9165 C0        -348.4273  -229.0812   309.4913 C0            1 RES     
    9166 C0        -347.0161  -229.0058   309.6328 C0            1 RES     
    9167 C0        -346.5368  -228.1810   310.6733 C0            1 RES     
    9168 N3        -345.2240  -227.9897   310.9652 N3            1 RES     
    9169 S1        -345.2884  -226.9516   312.2475 S1            1 RES     
    9170 N3        -346.9014  -226.7004   312.4766 N3            1 RES     
    9171 C0        -347.4540  -227.4726   311.5039 C0            1 RES     
    9172 C0        -348.8187  -227.5838   311.3029 C0            1 RES     
    9173 H4        -348.8777  -229.6642   308.7149 H4            1 RES     
    9174 C5        -347.8958  -221.8157   309.0803 C5            1 RES     
    9175 C5        -347.0862  -223.0568   309.4556 C5            1 RES     
    9176 C5        -347.6878  -224.3604   308.9035 C5            1 RES     
    9177 C5        -347.6561  -224.4455   307.3664 C5            1 RES     
    9178 C5        -348.2305  -225.7847   306.8799 C5            1 RES     
    9179 C5        -348.0679  -225.9451   305.3523 C5            1 RES     
    9180 C5        -348.5716  -227.2964   304.7790 C5            1 RES     
    9181 C5        -347.9819  -228.4708   305.5619 C5            1 RES     
    9182 C5        -348.0280  -229.8746   304.9077 C5            1 RES     
    9183 C5        -349.4140  -230.6133   304.7600 C5            1 RES     
    9184 C5        -349.8265  -231.0668   306.1879 C5            1 RES     
    9185 C5        -351.0597  -231.8781   306.6025 C5            1 RES     
    9186 C5        -350.9135  -232.0541   308.1500 C5            1 RES     
    9187 C5        -351.9990  -232.8333   308.8905 C5            1 RES     
    9188 C5        -351.9743  -234.3267   308.5896 C5            1 RES     
    9189 C5        -346.9223  -230.0660   303.8594 C5            1 RES     
    9190 C0        -346.1785  -231.4573   303.9971 C0            1 RES     
    9191 C5        -345.5480  -231.8409   302.5892 C5            1 RES     
    9192 C5        -345.9164  -233.2356   301.9731 C5            1 RES     
    9193 C5        -345.0039  -234.4056   302.4419 C5            1 RES     
    9194 C5        -343.6060  -234.4565   301.7807 C5            1 RES     
    9195 C5        -342.6392  -235.4421   302.4658 C5            1 RES     
    9196 C5        -342.9699  -236.9304   302.2732 C5            1 RES     
    9197 C5        -342.8977  -237.4223   300.8147 C5            1 RES     
    9198 C5        -341.5181  -237.2245   300.1785 C5            1 RES     
    9199 C5        -346.0984  -233.1994   300.4060 C5            1 RES     
    9200 C5        -345.0157  -232.4486   299.5826 C5            1 RES     
    9201 C5        -345.1206  -232.6462   298.0536 C5            1 RES     
    9202 C5        -346.4263  -232.1335   297.4139 C5            1 RES     
    9203 C5        -346.4518  -232.3017   295.8747 C5            1 RES     
    9204 C5        -345.4227  -231.4158   295.1385 C5            1 RES     
    9205 C5        -345.4320  -231.5850   293.6072 C5            1 RES     
    9206 C5        -346.7360  -231.1433   292.9428 C5            1 RES     
    9207 H6        -347.9034  -221.6566   307.9833 H6            1 RES     
    9208 H6        -347.4391  -220.9203   309.5522 H6            1 RES     
    9209 H6        -348.9396  -221.9153   309.4468 H6            1 RES     
    9210 H6        -346.0381  -222.9408   309.1028 H6            1 RES     
    9211 H6        -347.0690  -223.1274   310.5652 H6            1 RES     
    9212 H6        -347.0853  -225.2029   309.3113 H6            1 RES     
    9213 H6        -348.7301  -224.4718   309.2728 H6            1 RES     
    9214 H6        -346.5968  -224.3574   307.0360 H6            1 RES     
    9215 H6        -348.2434  -223.6220   306.9110 H6            1 RES     
    9216 H6        -347.6607  -226.5869   307.3956 H6            1 RES     
    9217 H6        -349.3020  -225.8642   307.1623 H6            1 RES     
    9218 H6        -348.5848  -225.1160   304.8230 H6            1 RES     
    9219 H6        -346.9806  -225.8667   305.1261 H6            1 RES     
    9220 H6        -349.6803  -227.3627   304.8108 H6            1 RES     
    9221 H6        -348.2449  -227.3388   303.7176 H6            1 RES     
    9222 H6        -348.4688  -228.4978   306.5546 H6            1 RES     
    9223 H6        -346.9075  -228.2493   305.7554 H6            1 RES     
    9224 H6        -347.5831  -230.4538   305.6326 H6            1 RES     
    9225 H6        -350.1650  -229.9580   304.2707 H6            1 RES     
    9226 H6        -349.2879  -231.5346   304.1495 H6            1 RES     
    9227 H6        -349.0143  -231.7563   306.4857 H6            1 RES     
    9228 H6        -349.8589  -230.1468   306.7955 H6            1 RES     
    9229 H6        -351.0640  -232.8637   306.0887 H6            1 RES     
    9230 H6        -351.9923  -231.3260   306.3641 H6            1 RES     
    9231 H6        -349.9357  -232.5342   308.3917 H6            1 RES     
    9232 H6        -350.9009  -231.0389   308.6042 H6            1 RES     
    9233 H6        -352.9962  -232.3966   308.6800 H6            1 RES     
    9234 H6        -351.7941  -232.7223   309.9805 H6            1 RES     
    9235 H6        -350.9781  -234.7523   308.8441 H6            1 RES     
    9236 H6        -352.1992  -234.5186   307.5227 H6            1 RES     
    9237 H6        -352.7352  -234.8336   309.2209 H6            1 RES     
    9238 H6        -346.1154  -229.3087   303.9638 H6            1 RES     
    9239 H6        -347.4065  -229.8895   302.8748 H6            1 RES     
    9240 H6        -346.0283  -231.1492   301.8714 H6            1 RES     
    9241 H6        -344.4772  -231.5726   302.4923 H6            1 RES     
    9242 H6        -346.9311  -233.4810   302.3605 H6            1 RES     
    9243 H6        -344.9210  -234.3372   303.5467 H6            1 RES     
    9244 H6        -345.5076  -235.3690   302.2104 H6            1 RES     
    9245 H6        -343.6871  -234.7138   300.7075 H6            1 RES     
    9246 H6        -343.1437  -233.4528   301.8299 H6            1 RES     
    9247 H6        -341.6145  -235.2525   302.0863 H6            1 RES     
    9248 H6        -342.6094  -235.2337   303.5550 H6            1 RES     
    9249 H6        -343.9791  -237.1443   302.6835 H6            1 RES     
    9250 H6        -342.2363  -237.5169   302.8687 H6            1 RES     
    9251 H6        -343.6654  -236.9189   300.1918 H6            1 RES     
    9252 H6        -343.1239  -238.5100   300.8142 H6            1 RES     
    9253 H6        -340.7342  -237.7242   300.7869 H6            1 RES     
    9254 H6        -341.5121  -237.6642   299.1597 H6            1 RES     
    9255 H6        -341.2729  -236.1472   300.0769 H6            1 RES     
    9256 H6        -347.0542  -232.6761   300.1870 H6            1 RES     
    9257 H6        -346.2116  -234.2446   300.0444 H6            1 RES     
    9258 H6        -344.0039  -232.7851   299.8451 H6            1 RES     
    9259 H6        -345.0550  -231.3623   299.8111 H6            1 RES     
    9260 H6        -344.2633  -232.0975   297.6154 H6            1 RES     
    9261 H6        -344.9971  -233.7256   297.8141 H6            1 RES     
    9262 H6        -346.5805  -231.0612   297.6632 H6            1 RES     
    9263 H6        -347.2726  -232.7167   297.8301 H6            1 RES     
    9264 H6        -346.2867  -233.3699   295.6131 H6            1 RES     
    9265 H6        -347.4698  -232.0165   295.5298 H6            1 RES     
    9266 H6        -344.4009  -231.6840   295.4725 H6            1 RES     
    9267 H6        -345.6034  -230.3476   295.3888 H6            1 RES     
    9268 H6        -344.6136  -230.9576   293.1896 H6            1 RES     
    9269 H6        -345.2213  -232.6436   293.3425 H6            1 RES     
    9270 H6        -347.5867  -231.7752   293.2676 H6            1 RES     
    9271 H6        -346.6377  -231.2448   291.8405 H6            1 RES     
    9272 H6        -346.9496  -230.0796   293.1801 H6            1 RES     
    9273 C0        -353.5092  -225.9581   313.4002 C0            1 RES     
    9274 C0        -353.2892  -225.4337   314.8765 C0            1 RES     
    9275 C0        -351.9743  -225.2283   315.1265 C0            1 RES     
    9276 S1        -351.6531  -224.6321   316.6622 S1            1 RES     
    9277 C0        -353.2938  -224.5991   317.1028 C0            1 RES     
    9278 C0        -354.0398  -225.1430   316.0473 C0            1 RES     
    9279 C0        -351.2071  -225.6584   314.0172 C0            1 RES     
    9280 C0        -352.0169  -226.0825   313.0737 C0            1 RES     
    9281 C0        -351.2836  -226.7200   312.0163 C0            1 RES     
    9282 C0        -349.9250  -226.7342   312.2747 C0            1 RES     
    9283 S1        -349.4531  -225.8950   313.7972 S1            1 RES     
    9284 H2        -355.0876  -225.2666   316.1412 H2            1 RES     
    9285 H2        -351.7351  -227.2351   311.2218 H2            1 RES     
    9286 N3        -355.8138  -223.1696   319.5622 N3            1 RES     
    9287 C0        -355.2704  -223.7881   318.4764 C0            1 RES     
    9288 C0        -353.8706  -223.9968   318.3567 C0            1 RES     
    9289 C0        -353.0778  -223.5399   319.4316 C0            1 RES     
    9290 N3        -351.7261  -223.6563   319.4989 N3            1 RES     
    9291 S1        -351.3770  -222.9578   320.9536 S1            1 RES     
    9292 N3        -352.8472  -222.4898   321.5343 N3            1 RES     
    9293 C0        -353.6895  -222.8998   320.5492 C0            1 RES     
    9294 C0        -355.0608  -222.7192   320.5955 C0            1 RES     
    9295 H4        -355.9446  -224.0819   317.6988 H4            1 RES     
    9296 C5        -353.2652  -216.8416   319.4585 C5            1 RES     
    9297 C5        -352.6932  -218.2584   319.4109 C5            1 RES     
    9298 C5        -353.6342  -219.2674   318.7310 C5            1 RES     
    9299 C5        -353.8489  -218.9892   317.2318 C5            1 RES     
    9300 C5        -354.7616  -220.0526   316.6023 C5            1 RES     
    9301 C5        -354.8645  -219.8714   315.0719 C5            1 RES     
    9302 C5        -355.7244  -220.9382   314.3432 C5            1 RES     
    9303 C5        -355.2902  -222.3495   314.7426 C5            1 RES     
    9304 C5        -355.7313  -223.5273   313.8376 C5            1 RES     
    9305 C5        -357.2494  -223.9553   313.8114 C5            1 RES     
    9306 C5        -357.5338  -224.6555   315.1691 C5            1 RES     
    9307 C5        -358.8368  -225.3133   315.6387 C5            1 RES     
    9308 C5        -358.5047  -225.8747   317.0606 C5            1 RES     
    9309 C5        -359.6100  -226.6050   317.8212 C5            1 RES     
    9310 C5        -359.9498  -227.9647   317.2236 C5            1 RES     
    9311 C5        -354.8594  -223.6547   312.5801 C5            1 RES     
    9312 C0        -354.4180  -225.1471   312.2863 C0            1 RES     
    9313 C5        -354.0991  -225.2895   310.7356 C5            1 RES     
    9314 C5        -354.8439  -226.4113   309.9309 C5            1 RES     
    9315 C5        -354.1435  -227.8003   309.9678 C5            1 RES     
    9316 C5        -352.9022  -227.9366   309.0543 C5            1 RES     
    9317 C5        -352.0780  -229.2104   309.3260 C5            1 RES     
    9318 C5        -352.7439  -230.5287   308.9017 C5            1 RES     
    9319 C5        -352.9947  -230.6649   307.3873 C5            1 RES     
    9320 C5        -351.7142  -230.5663   306.5521 C5            1 RES     
    9321 C5        -355.2435  -225.9725   308.4686 C5            1 RES     
    9322 C5        -354.1591  -225.2492   307.6231 C5            1 RES     
    9323 C5        -354.5285  -225.0563   306.1351 C5            1 RES     
    9324 C5        -355.7742  -224.1859   305.8758 C5            1 RES     
    9325 C5        -356.0621  -223.9765   304.3688 C5            1 RES     
    9326 C5        -354.9878  -223.1354   303.6448 C5            1 RES     
    9327 C5        -355.2591  -222.9317   302.1420 C5            1 RES     
    9328 C5        -356.5220  -222.1235   301.8442 C5            1 RES     
    9329 H6        -353.4005  -216.4277   318.4391 H6            1 RES     
    9330 H6        -352.5632  -216.1782   320.0062 H6            1 RES     
    9331 H6        -354.2404  -216.8412   319.9904 H6            1 RES     
    9332 H6        -351.7084  -218.2473   318.8947 H6            1 RES     
    9333 H6        -352.5278  -218.5925   320.4586 H6            1 RES     
    9334 H6        -353.1723  -220.2748   318.8354 H6            1 RES     
    9335 H6        -354.6100  -219.2791   319.2628 H6            1 RES     
    9336 H6        -352.8559  -219.0120   316.7293 H6            1 RES     
    9337 H6        -354.3073  -217.9914   317.0749 H6            1 RES     
    9338 H6        -354.3066  -221.0413   316.8249 H6            1 RES     
    9339 H6        -355.7716  -220.0080   317.0630 H6            1 RES     
    9340 H6        -355.2646  -218.8630   314.8317 H6            1 RES     
    9341 H6        -353.8312  -219.9332   314.6620 H6            1 RES     
    9342 H6        -356.8045  -220.8149   314.5729 H6            1 RES     
    9343 H6        -355.5747  -220.7837   313.2528 H6            1 RES     
    9344 H6        -355.6196  -222.5258   315.7836 H6            1 RES     
    9345 H6        -354.1768  -222.3720   314.7673 H6            1 RES     
    9346 H6        -355.3185  -224.3308   314.3303 H6            1 RES     
    9347 H6        -357.9069  -223.0815   313.6192 H6            1 RES     
    9348 H6        -357.4148  -224.7127   313.0136 H6            1 RES     
    9349 H6        -356.8528  -225.5273   315.1589 H6            1 RES     
    9350 H6        -357.2787  -223.9152   315.9460 H6            1 RES     
    9351 H6        -359.1275  -226.1322   314.9457 H6            1 RES     
    9352 H6        -359.6546  -224.5658   315.7012 H6            1 RES     
    9353 H6        -357.6274  -226.5621   317.0073 H6            1 RES     
    9354 H6        -358.2085  -225.0148   317.7008 H6            1 RES     
    9355 H6        -360.5108  -225.9631   317.8993 H6            1 RES     
    9356 H6        -359.2274  -226.7938   318.8510 H6            1 RES     
    9357 H6        -359.0412  -228.6063   317.1902 H6            1 RES     
    9358 H6        -360.3655  -227.8553   316.2034 H6            1 RES     
    9359 H6        -360.6996  -228.4657   317.8725 H6            1 RES     
    9360 H6        -353.9029  -223.0973   312.6796 H6            1 RES     
    9361 H6        -355.4347  -223.1674   311.7636 H6            1 RES     
    9362 H6        -354.5212  -224.3740   310.2794 H6            1 RES     
    9363 H6        -353.0221  -225.1976   310.4917 H6            1 RES     
    9364 H6        -355.8190  -226.5600   310.4476 H6            1 RES     
    9365 H6        -353.8857  -228.0119   311.0265 H6            1 RES     
    9366 H6        -354.8700  -228.5776   309.6460 H6            1 RES     
    9367 H6        -353.1940  -227.9134   307.9872 H6            1 RES     
    9368 H6        -352.2340  -227.0703   309.2172 H6            1 RES     
    9369 H6        -351.1040  -229.1185   308.8036 H6            1 RES     
    9370 H6        -351.8438  -229.2752   310.4084 H6            1 RES     
    9371 H6        -353.7035  -230.6538   309.4457 H6            1 RES     
    9372 H6        -352.0729  -231.3590   309.2132 H6            1 RES     
    9373 H6        -353.7205  -229.9015   307.0391 H6            1 RES     
    9374 H6        -353.4457  -231.6644   307.2089 H6            1 RES     
    9375 H6        -350.9740  -231.3256   306.8841 H6            1 RES     
    9376 H6        -351.9528  -230.7455   305.4833 H6            1 RES     
    9377 H6        -351.2621  -229.5558   306.6267 H6            1 RES     
    9378 H6        -356.0869  -225.2531   308.5483 H6            1 RES     
    9379 H6        -355.6295  -226.8655   307.9305 H6            1 RES     
    9380 H6        -353.2151  -225.8102   307.6126 H6            1 RES     
    9381 H6        -353.9311  -224.2586   308.0712 H6            1 RES     
    9382 H6        -353.6481  -224.5782   305.6616 H6            1 RES     
    9383 H6        -354.6752  -226.0524   305.6618 H6            1 RES     
    9384 H6        -355.6571  -223.1935   306.3630 H6            1 RES     
    9385 H6        -356.6546  -224.6938   306.3191 H6            1 RES     
    9386 H6        -356.1696  -224.9639   303.8685 H6            1 RES     
    9387 H6        -357.0351  -223.4438   304.2910 H6            1 RES     
    9388 H6        -354.0090  -223.6500   303.7148 H6            1 RES     
    9389 H6        -354.8970  -222.1426   304.1372 H6            1 RES     
    9390 H6        -354.3964  -222.3763   301.7118 H6            1 RES     
    9391 H6        -355.3209  -223.9171   301.6319 H6            1 RES     
    9392 H6        -357.4306  -222.6554   302.1907 H6            1 RES     
    9393 H6        -356.6116  -221.9758   300.7464 H6            1 RES     
    9394 H6        -356.4659  -221.1261   302.3296 H6            1 RES     
    9395 C0        -358.9331  -220.8428   323.8400 C0            1 RES     
    9396 C0        -358.3905  -220.7310   325.3219 C0            1 RES     
    9397 C0        -357.0399  -220.8244   325.3514 C0            1 RES     
    9398 S1        -356.3755  -220.6758   326.8855 S1            1 RES     
    9399 C0        -357.8878  -220.4616   327.6301 C0            1 RES     
    9400 C0        -358.8803  -220.5999   326.6491 C0            1 RES     
    9401 C0        -356.5549  -221.1062   324.0516 C0            1 RES     
    9402 C0        -357.5668  -221.1455   323.2149 C0            1 RES     
    9403 C0        -357.1511  -221.6318   321.9292 C0            1 RES     
    9404 C0        -355.8040  -221.9447   321.9138 C0            1 RES     
    9405 S1        -354.9441  -221.5871   323.4557 S1            1 RES     
    9406 H2        -359.9046  -220.5568   326.9152 H2            1 RES     
    9407 H2        -357.8145  -221.8562   321.1482 H2            1 RES     
    9408 N3        -359.6525  -219.2387   330.7658 N3            1 RES     
    9409 C0        -359.4204  -219.6670   329.4932 C0            1 RES     
    9410 C0        -358.1309  -220.0830   329.0672 C0            1 RES     
    9411 C0        -357.1089  -220.0406   330.0400 C0            1 RES     
    9412 N3        -355.8185  -220.4046   329.8216 N3            1 RES     
    9413 S1        -355.1173  -220.1439   331.2934 S1            1 RES     
    9414 N3        -356.3512  -219.5772   332.2282 N3            1 RES     
    9415 C0        -357.3977  -219.5874   331.3607 C0            1 RES     
    9416 C0        -358.6765  -219.1858   331.7051 C0            1 RES     
    9417 H4        -360.2490  -219.6448   328.8162 H4            1 RES     
    9418 C5        -355.8545  -213.6143   331.4651 C5            1 RES     
    9419 C5        -355.6119  -215.0568   331.0214 C5            1 RES     
    9420 C5        -356.8367  -215.6946   330.3437 C5            1 RES     
    9421 C5        -357.2059  -215.0350   329.0023 C5            1 RES     
    9422 C5        -358.4075  -215.7418   328.3566 C5            1 RES     
    9423 C5        -358.6942  -215.1870   326.9438 C5            1 RES     
    9424 C5        -359.8602  -215.8826   326.1921 C5            1 RES     
    9425 C5        -359.6835  -217.4020   326.2050 C5            1 RES     
    9426 C5        -360.4949  -218.2351   325.1811 C5            1 RES     
    9427 C5        -362.0562  -218.3720   325.3601 C5            1 RES     
    9428 C5        -362.2799  -219.3138   326.5757 C5            1 RES     
    9429 C5        -363.6093  -219.8256   327.1427 C5            1 RES     
    9430 C5        -363.1986  -220.7579   328.3298 C5            1 RES     
    9431 C5        -364.3097  -221.4428   329.1236 C5            1 RES     
    9432 C5        -365.0166  -222.5406   328.3382 C5            1 RES     
    9433 C5        -359.8658  -218.2108   323.7805 C5            1 RES     
    9434 C0        -359.8019  -219.6442   323.1100 C0            1 RES     
    9435 C5        -359.7534  -219.4678   321.5311 C5            1 RES     
    9436 C5        -360.8312  -220.2180   320.6730 C5            1 RES     
    9437 C5        -360.4463  -221.6766   320.2914 C5            1 RES     
    9438 C5        -359.4117  -221.8072   319.1485 C5            1 RES     
    9439 C5        -358.8477  -223.2331   318.9919 C5            1 RES     
    9440 C5        -359.8352  -224.2753   318.4439 C5            1 RES     
    9441 C5        -360.3302  -224.0018   317.0104 C5            1 RES     
    9442 C5        -359.1959  -223.9334   315.9830 C5            1 RES     
    9443 C5        -361.3393  -219.3814   319.4352 C5            1 RES     
    9444 C5        -360.2624  -218.6793   318.5625 C5            1 RES     
    9445 C5        -360.7977  -218.0769   317.2440 C5            1 RES     
    9446 C5        -361.8529  -216.9655   317.4113 C5            1 RES     
    9447 C5        -362.3089  -216.3570   316.0623 C5            1 RES     
    9448 C5        -361.1985  -215.5695   315.3323 C5            1 RES     
    9449 C5        -361.6390  -214.9704   313.9829 C5            1 RES     
    9450 C5        -362.7299  -213.9063   314.1039 C5            1 RES     
    9451 H6        -356.0473  -212.9530   330.5966 H6            1 RES     
    9452 H6        -354.9538  -213.2335   331.9913 H6            1 RES     
    9453 H6        -356.7175  -213.5695   332.1631 H6            1 RES     
    9454 H6        -354.7347  -215.0960   330.3390 H6            1 RES     
    9455 H6        -355.3688  -215.6539   331.9274 H6            1 RES     
    9456 H6        -356.5905  -216.7628   330.1503 H6            1 RES     
    9457 H6        -357.7029  -215.6612   331.0392 H6            1 RES     
    9458 H6        -356.3261  -215.1114   328.3246 H6            1 RES     
    9459 H6        -357.4585  -213.9641   329.1427 H6            1 RES     
    9460 H6        -358.1466  -216.8190   328.2817 H6            1 RES     
    9461 H6        -359.3053  -215.6317   329.0017 H6            1 RES     
    9462 H6        -358.9006  -214.0964   326.9952 H6            1 RES     
    9463 H6        -357.7701  -215.3296   326.3395 H6            1 RES     
    9464 H6        -360.8429  -215.6302   326.6450 H6            1 RES     
    9465 H6        -359.8437  -215.5022   325.1480 H6            1 RES     
    9466 H6        -359.8855  -217.7601   327.2318 H6            1 RES     
    9467 H6        -358.6095  -217.6243   326.0105 H6            1 RES     
    9468 H6        -360.1951  -219.1922   325.4114 H6            1 RES     
    9469 H6        -362.5327  -217.3763   325.4796 H6            1 RES     
    9470 H6        -362.4955  -218.8772   324.4718 H6            1 RES     
    9471 H6        -361.8101  -220.2635   326.2578 H6            1 RES     
    9472 H6        -361.7606  -218.8356   327.4233 H6            1 RES     
    9473 H6        -364.1674  -220.3925   326.3664 H6            1 RES     
    9474 H6        -364.2301  -218.9831   327.5117 H6            1 RES     
    9475 H6        -362.5062  -221.5557   327.9704 H6            1 RES     
    9476 H6        -362.6342  -220.1403   329.0627 H6            1 RES     
    9477 H6        -365.0309  -220.6904   329.5020 H6            1 RES     
    9478 H6        -363.8285  -221.9348   330.0004 H6            1 RES     
    9479 H6        -364.2813  -223.3047   328.0012 H6            1 RES     
    9480 H6        -365.5454  -222.1208   327.4608 H6            1 RES     
    9481 H6        -365.7520  -223.0421   329.0032 H6            1 RES     
    9482 H6        -358.8083  -217.8693   323.8060 H6            1 RES     
    9483 H6        -360.4378  -217.4505   323.2062 H6            1 RES     
    9484 H6        -360.0328  -218.4108   321.3604 H6            1 RES     
    9485 H6        -358.7298  -219.5106   321.1089 H6            1 RES     
    9486 H6        -361.7283  -220.3121   321.3260 H6            1 RES     
    9487 H6        -360.0861  -222.1753   321.2153 H6            1 RES     
    9488 H6        -361.3614  -222.2156   319.9637 H6            1 RES     
    9489 H6        -359.8461  -221.4803   318.1846 H6            1 RES     
    9490 H6        -358.5571  -221.1351   319.3529 H6            1 RES     
    9491 H6        -357.9648  -223.1917   318.3222 H6            1 RES     
    9492 H6        -358.4757  -223.5931   319.9729 H6            1 RES     
    9493 H6        -360.7082  -224.3560   319.1249 H6            1 RES     
    9494 H6        -359.3186  -225.2601   318.4453 H6            1 RES     
    9495 H6        -360.9193  -223.0626   316.9708 H6            1 RES     
    9496 H6        -361.0056  -224.8354   316.7223 H6            1 RES     
    9497 H6        -358.5944  -224.8673   316.0051 H6            1 RES     
    9498 H6        -359.6225  -223.8089   314.9661 H6            1 RES     
    9499 H6        -358.5324  -223.0648   316.1735 H6            1 RES     
    9500 H6        -361.9882  -218.5653   319.8199 H6            1 RES     
    9501 H6        -361.9824  -220.0392   318.8108 H6            1 RES     
    9502 H6        -359.4723  -219.3781   318.2571 H6            1 RES     
    9503 H6        -359.7644  -217.8793   319.1506 H6            1 RES     
    9504 H6        -359.9153  -217.6617   316.7178 H6            1 RES     
    9505 H6        -361.2222  -218.8905   316.6151 H6            1 RES     
    9506 H6        -361.4559  -216.1536   318.0586 H6            1 RES     
    9507 H6        -362.7462  -217.4019   317.9025 H6            1 RES     
    9508 H6        -362.6976  -217.1628   315.4017 H6            1 RES     
    9509 H6        -363.1461  -215.6592   316.2828 H6            1 RES     
    9510 H6        -360.3530  -216.2492   315.1070 H6            1 RES     
    9511 H6        -360.8260  -214.7538   315.9897 H6            1 RES     
    9512 H6        -360.7508  -214.4886   313.5174 H6            1 RES     
    9513 H6        -361.9846  -215.7799   313.3046 H6            1 RES     
    9514 H6        -363.6697  -214.3377   314.5027 H6            1 RES     
    9515 H6        -362.9469  -213.4887   313.0972 H6            1 RES     
    9516 H6        -362.3908  -213.0785   314.7621 H6            1 RES     
    9517 C0        -361.5356  -217.4856   335.9450 C0            1 RES     
    9518 C0        -360.7689  -217.8258   337.2864 C0            1 RES     
    9519 C0        -359.4803  -218.1585   337.0365 C0            1 RES     
    9520 S1        -358.5804  -218.4974   338.4121 S1            1 RES     
    9521 C0        -359.8850  -218.2048   339.4607 C0            1 RES     
    9522 C0        -361.0178  -217.9301   338.6812 C0            1 RES     
    9523 C0        -359.2641  -218.2040   335.6382 C0            1 RES     
    9524 C0        -360.3733  -217.8655   335.0210 C0            1 RES     
    9525 C0        -360.2657  -218.0976   333.6079 C0            1 RES     
    9526 C0        -359.0340  -218.6287   333.2709 C0            1 RES     
    9527 S1        -357.8994  -218.8040   334.6590 S1            1 RES     
    9528 H2        -361.9585  -217.7728   339.1420 H2            1 RES     
    9529 H2        -361.0696  -218.0103   332.9398 H2            1 RES     
    9530 N3        -360.8646  -217.4722   343.0588 N3            1 RES     
    9531 C0        -360.9199  -217.6197   341.7053 C0            1 RES     
    9532 C0        -359.8266  -218.1419   340.9642 C0            1 RES     
    9533 C0        -358.6869  -218.5114   341.7107 C0            1 RES     
    9534 N3        -357.5509  -219.0332   341.1793 N3            1 RES     
    9535 S1        -356.6006  -219.2565   342.5109 S1            1 RES     
    9536 N3        -357.5330  -218.7211   343.7605 N3            1 RES     
    9537 C0        -358.6739  -218.3415   343.1263 C0            1 RES     
    9538 C0        -359.7721  -217.8157   343.7841 C0            1 RES     
    9539 H4        -361.8154  -217.2927   341.2188 H4            1 RES     
    9540 C5        -355.8917  -212.9295   344.1462 C5            1 RES     
    9541 C5        -356.0313  -214.2448   343.3800 C5            1 RES     
    9542 C5        -357.4504  -214.4787   342.8346 C5            1 RES     
    9543 C5        -357.8642  -213.4652   341.7518 C5            1 RES     
    9544 C5        -359.2709  -213.7767   341.2186 C5            1 RES     
    9545 C5        -359.6379  -212.8609   340.0302 C5            1 RES     
    9546 C5        -361.0235  -213.1427   339.3906 C5            1 RES     
    9547 C5        -361.1757  -214.6284   339.0599 C5            1 RES     
    9548 C5        -362.2885  -215.0391   338.0629 C5            1 RES     
    9549 C5        -363.7990  -214.9390   338.5066 C5            1 RES     
    9550 C5        -364.0367  -216.0885   339.5249 C5            1 RES     
    9551 C5        -365.3462  -216.4794   340.2201 C5            1 RES     
    9552 C5        -364.9734  -217.7241   341.0913 C5            1 RES     
    9553 C5        -366.0755  -218.3725   341.9272 C5            1 RES     
    9554 C5        -367.1087  -219.1110   341.0854 C5            1 RES     
    9555 C5        -361.8827  -214.7934   336.6025 C5            1 RES     
    9556 C0        -362.2263  -216.0148   335.6548 C0            1 RES     
    9557 C5        -362.3750  -215.4797   334.1654 C5            1 RES     
    9558 C5        -363.7029  -215.8039   333.3958 C5            1 RES     
    9559 C5        -363.6992  -217.1743   332.6587 C5            1 RES     
    9560 C5        -362.8968  -217.2087   331.3362 C5            1 RES     
    9561 C5        -362.6801  -218.6327   330.7875 C5            1 RES     
    9562 C5        -363.9373  -219.3254   330.2388 C5            1 RES     
    9563 C5        -364.5686  -218.6369   329.0132 C5            1 RES     
    9564 C5        -363.6104  -218.5261   327.8230 C5            1 RES     
    9565 C5        -364.1975  -214.6216   332.4751 C5            1 RES     
    9566 C5        -363.1365  -213.9321   331.5736 C5            1 RES     
    9567 C5        -363.7194  -212.9495   330.5330 C5            1 RES     
    9568 C5        -364.4762  -211.7426   331.1224 C5            1 RES     
    9569 C5        -364.9857  -210.7609   330.0385 C5            1 RES     
    9570 C5        -363.8530  -210.0295   329.2849 C5            1 RES     
    9571 C5        -364.3497  -209.0593   328.1959 C5            1 RES     
    9572 C5        -365.1578  -207.8804   328.7379 C5            1 RES     
    9573 H6        -356.0649  -212.0575   343.4840 H6            1 RES     
    9574 H6        -354.8630  -212.8483   344.5560 H6            1 RES     
    9575 H6        -356.6125  -212.9013   344.9910 H6            1 RES     
    9576 H6        -355.2934  -214.2738   342.5486 H6            1 RES     
    9577 H6        -355.7903  -215.0731   344.0817 H6            1 RES     
    9578 H6        -357.4695  -215.4965   342.3842 H6            1 RES     
    9579 H6        -358.1770  -214.4604   343.6753 H6            1 RES     
    9580 H6        -357.1310  -213.5312   340.9168 H6            1 RES     
    9581 H6        -357.8585  -212.4312   342.1530 H6            1 RES     
    9582 H6        -359.2602  -214.8338   340.8774 H6            1 RES     
    9583 H6        -360.0191  -213.6676   342.0326 H6            1 RES     
    9584 H6        -359.5965  -211.7949   340.3411 H6            1 RES     
    9585 H6        -358.8652  -213.0154   339.2436 H6            1 RES     
    9586 H6        -361.8517  -212.8371   340.0654 H6            1 RES     
    9587 H6        -361.0805  -212.5341   338.4624 H6            1 RES     
    9588 H6        -361.2956  -215.1791   340.0115 H6            1 RES     
    9589 H6        -360.2148  -214.9827   338.6218 H6            1 RES     
    9590 H6        -362.1695  -216.0608   338.0317 H6            1 RES     
    9591 H6        -364.0288  -213.9326   338.9153 H6            1 RES     
    9592 H6        -364.4624  -215.1338   337.6351 H6            1 RES     
    9593 H6        -363.8330  -217.0027   338.9362 H6            1 RES     
    9594 H6        -363.3079  -215.9239   340.3363 H6            1 RES     
    9595 H6        -366.1209  -216.7389   339.4666 H6            1 RES     
    9596 H6        -365.7111  -215.6534   340.8651 H6            1 RES     
    9597 H6        -364.5283  -218.5222   340.4510 H6            1 RES     
    9598 H6        -364.1882  -217.4069   341.8123 H6            1 RES     
    9599 H6        -366.5552  -217.6172   342.5821 H6            1 RES     
    9600 H6        -365.5864  -219.1352   342.5765 H6            1 RES     
    9601 H6        -366.6117  -219.8899   340.4652 H6            1 RES     
    9602 H6        -367.6593  -218.4089   340.4299 H6            1 RES     
    9603 H6        -367.8278  -219.6194   341.7628 H6            1 RES     
    9604 H6        -360.7847  -214.6583   336.4936 H6            1 RES     
    9605 H6        -362.3574  -213.8303   336.3156 H6            1 RES     
    9606 H6        -362.4441  -214.3803   334.2704 H6            1 RES     
    9607 H6        -361.4580  -215.5996   333.5551 H6            1 RES     
    9608 H6        -364.4928  -215.8919   334.1757 H6            1 RES     
    9609 H6        -363.3215  -217.9334   333.3751 H6            1 RES     
    9610 H6        -364.7465  -217.4512   332.4099 H6            1 RES     
    9611 H6        -363.3888  -216.5914   330.5608 H6            1 RES     
    9612 H6        -361.8978  -216.7648   331.5054 H6            1 RES     
    9613 H6        -361.9175  -218.5887   329.9835 H6            1 RES     
    9614 H6        -362.2528  -219.2749   331.5847 H6            1 RES     
    9615 H6        -364.6971  -219.4114   331.0437 H6            1 RES     
    9616 H6        -363.6487  -220.3571   329.9405 H6            1 RES     
    9617 H6        -364.9426  -217.6269   329.2793 H6            1 RES     
    9618 H6        -365.4415  -219.2466   328.6964 H6            1 RES     
    9619 H6        -363.2259  -219.5290   327.5388 H6            1 RES     
    9620 H6        -364.1459  -218.0909   326.9539 H6            1 RES     
    9621 H6        -362.7559  -217.8576   328.0554 H6            1 RES     
    9622 H6        -364.5930  -213.8196   333.1351 H6            1 RES     
    9623 H6        -365.0514  -214.9891   331.8652 H6            1 RES     
    9624 H6        -362.5680  -214.6655   330.9865 H6            1 RES     
    9625 H6        -362.3977  -213.3945   332.2055 H6            1 RES     
    9626 H6        -362.8563  -212.5823   329.9430 H6            1 RES     
    9627 H6        -364.3961  -213.5031   329.8451 H6            1 RES     
    9628 H6        -363.8237  -211.1901   331.8328 H6            1 RES     
    9629 H6        -365.3595  -212.1198   331.6765 H6            1 RES     
    9630 H6        -365.6308  -211.3058   329.3149 H6            1 RES     
    9631 H6        -365.6125  -209.9999   330.5528 H6            1 RES     
    9632 H6        -363.2150  -210.7734   328.7679 H6            1 RES     
    9633 H6        -363.2218  -209.4715   330.0106 H6            1 RES     
    9634 H6        -363.4577  -208.6439   327.6765 H6            1 RES     
    9635 H6        -364.9566  -209.6111   327.4461 H6            1 RES     
    9636 H6        -366.0987  -208.2227   329.2132 H6            1 RES     
    9637 H6        -365.4268  -207.2042   327.8980 H6            1 RES     
    9638 H6        -364.5563  -207.3052   329.4732 H6            1 RES     
    9639 C0        -361.5435  -216.6978   348.7494 C0            1 RES     
    9640 C0        -360.6777  -217.4757   349.8209 C0            1 RES     
    9641 C0        -359.5413  -217.9599   349.2660 C0            1 RES     
    9642 S1        -358.5415  -218.7680   350.3450 S1            1 RES     
    9643 C0        -359.5839  -218.5091   351.6617 C0            1 RES     
    9644 C0        -360.7343  -217.8631   351.1866 C0            1 RES     
    9645 C0        -359.5488  -217.7090   347.8727 C0            1 RES     
    9646 C0        -360.6387  -217.0448   347.5619 C0            1 RES     
    9647 C0        -360.7931  -216.9496   346.1374 C0            1 RES     
    9648 C0        -359.7670  -217.5928   345.4694 C0            1 RES     
    9649 S1        -358.5038  -218.2886   346.5487 S1            1 RES     
    9650 H2        -361.5410  -217.6575   351.8415 H2            1 RES     
    9651 H2        -361.6494  -216.5668   345.6679 H2            1 RES     
    9652 N3        -359.8420  -218.4924   355.4532 N3            1 RES     
    9653 C0        -360.1268  -218.3021   354.1343 C0            1 RES     
    9654 C0        -359.2920  -218.8164   353.1067 C0            1 RES     
    9655 C0        -358.1602  -219.5463   353.5295 C0            1 RES     
    9656 N3        -357.2531  -220.1176   352.6951 N3            1 RES     
    9657 S1        -356.1866  -220.8137   353.7458 S1            1 RES     
    9658 N3        -356.7880  -220.4357   355.2334 N3            1 RES     
    9659 C0        -357.9022  -219.7226   354.9207 C0            1 RES     
    9660 C0        -358.7532  -219.1841   355.8700 C0            1 RES     
    9661 H4        -360.9935  -217.7172   353.9056 H4            1 RES     
    9662 C5        -353.9084  -215.2810   356.4675 C5            1 RES     
    9663 C5        -354.4375  -216.3313   355.4910 C5            1 RES     
    9664 C5        -355.9384  -216.1768   355.1921 C5            1 RES     
    9665 C5        -356.2812  -214.8787   354.4382 C5            1 RES     
    9666 C5        -357.7850  -214.8033   354.1328 C5            1 RES     
    9667 C5        -358.1192  -213.5817   353.2486 C5            1 RES     
    9668 C5        -359.6120  -213.4565   352.8431 C5            1 RES     
    9669 C5        -360.1253  -214.7708   352.2524 C5            1 RES     
    9670 C5        -361.4349  -214.7315   351.4252 C5            1 RES     
    9671 C5        -362.8066  -214.4768   352.1614 C5            1 RES     
    9672 C5        -363.1314  -215.7753   352.9507 C5            1 RES     
    9673 C5        -364.3767  -216.0847   353.7899 C5            1 RES     
    9674 C5        -364.1541  -217.5462   354.3014 C5            1 RES     
    9675 C5        -365.2335  -218.1713   355.1834 C5            1 RES     
    9676 C5        -366.5134  -218.4960   354.4232 C5            1 RES     
    9677 C5        -361.2062  -214.2209   349.9952 C5            1 RES     
    9678 C0        -361.9390  -215.1026   348.9027 C0            1 RES     
    9679 C5        -362.1882  -214.2114   347.6102 C5            1 RES     
    9680 C5        -363.6535  -214.1059   347.0601 C5            1 RES     
    9681 C5        -364.0517  -215.2408   346.0728 C5            1 RES     
    9682 C5        -363.4795  -215.1000   344.6422 C5            1 RES     
    9683 C5        -363.6556  -216.3681   343.7839 C5            1 RES     
    9684 C5        -365.0987  -216.6795   343.3574 C5            1 RES     
    9685 C5        -365.7422  -215.6200   342.4420 C5            1 RES     
    9686 C5        -364.9690  -215.3992   341.1380 C5            1 RES     
    9687 C5        -364.0145  -212.6709   346.5117 C5            1 RES     
    9688 C5        -362.9757  -211.9837   345.5830 C5            1 RES     
    9689 C5        -363.4823  -210.6957   344.8958 C5            1 RES     
    9690 C5        -363.8681  -209.5500   345.8524 C5            1 RES     
    9691 C5        -364.3104  -208.2653   345.1095 C5            1 RES     
    9692 C5        -363.1716  -207.5858   344.3174 C5            1 RES     
    9693 C5        -363.6048  -206.3132   343.5646 C5            1 RES     
    9694 C5        -364.0532  -205.1740   344.4800 C5            1 RES     
    9695 H6        -353.9871  -214.2603   356.0424 H6            1 RES     
    9696 H6        -352.8370  -215.4810   356.6801 H6            1 RES     
    9697 H6        -354.4736  -215.3286   357.4226 H6            1 RES     
    9698 H6        -353.8539  -216.2907   354.5453 H6            1 RES     
    9699 H6        -354.2781  -217.3316   355.9499 H6            1 RES     
    9700 H6        -356.2408  -217.0389   354.5562 H6            1 RES     
    9701 H6        -356.5119  -216.2317   356.1424 H6            1 RES     
    9702 H6        -355.7107  -214.8718   353.4824 H6            1 RES     
    9703 H6        -355.9956  -213.9870   355.0328 H6            1 RES     
    9704 H6        -358.0510  -215.7342   353.5880 H6            1 RES     
    9705 H6        -358.3639  -214.7615   355.0801 H6            1 RES     
    9706 H6        -357.8055  -212.6444   353.7562 H6            1 RES     
    9707 H6        -357.5223  -213.6778   352.3138 H6            1 RES     
    9708 H6        -360.2467  -213.1797   353.7121 H6            1 RES     
    9709 H6        -359.6741  -212.6445   352.0868 H6            1 RES     
    9710 H6        -360.2182  -215.5020   353.0770 H6            1 RES     
    9711 H6        -359.3377  -215.1735   351.5753 H6            1 RES     
    9712 H6        -361.5429  -215.7211   351.1645 H6            1 RES     
    9713 H6        -362.7530  -213.5721   352.8027 H6            1 RES     
    9714 H6        -363.6176  -214.3397   351.4124 H6            1 RES     
    9715 H6        -363.2170  -216.5446   352.1603 H6            1 RES     
    9716 H6        -362.2726  -215.9384   353.6234 H6            1 RES     
    9717 H6        -365.2916  -216.0179   353.1622 H6            1 RES     
    9718 H6        -364.4573  -215.3847   354.6472 H6            1 RES     
    9719 H6        -363.9894  -218.2345   353.4388 H6            1 RES     
    9720 H6        -363.2216  -217.5519   354.9075 H6            1 RES     
    9721 H6        -365.4386  -217.5212   356.0580 H6            1 RES     
    9722 H6        -364.8283  -219.1398   355.5578 H6            1 RES     
    9723 H6        -366.2915  -219.1798   353.5739 H6            1 RES     
    9724 H6        -366.9918  -217.5731   354.0424 H6            1 RES     
    9725 H6        -367.2163  -219.0168   355.1081 H6            1 RES     
    9726 H6        -360.1332  -214.2582   349.7074 H6            1 RES     
    9727 H6        -361.5012  -213.1494   350.0069 H6            1 RES     
    9728 H6        -362.0045  -213.1739   347.9480 H6            1 RES     
    9729 H6        -361.4185  -214.3416   346.8238 H6            1 RES     
    9730 H6        -364.3199  -214.2369   347.9425 H6            1 RES     
    9731 H6        -363.7433  -216.2024   346.5337 H6            1 RES     
    9732 H6        -365.1589  -215.2628   345.9786 H6            1 RES     
    9733 H6        -363.9372  -214.2399   344.1177 H6            1 RES     
    9734 H6        -362.3950  -214.8910   344.7032 H6            1 RES     
    9735 H6        -363.0285  -216.2687   342.8747 H6            1 RES     
    9736 H6        -363.2625  -217.2460   344.3366 H6            1 RES     
    9737 H6        -365.7319  -216.8199   344.2584 H6            1 RES     
    9738 H6        -365.0845  -217.6450   342.8057 H6            1 RES     
    9739 H6        -365.8483  -214.6527   342.9748 H6            1 RES     
    9740 H6        -366.7623  -215.9745   342.1813 H6            1 RES     
    9741 H6        -364.8540  -216.3572   340.5872 H6            1 RES     
    9742 H6        -365.5215  -214.6832   340.4949 H6            1 RES     
    9743 H6        -363.9666  -214.9653   341.3332 H6            1 RES     
    9744 H6        -364.1275  -211.9921   347.3845 H6            1 RES     
    9745 H6        -365.0076  -212.7277   346.0153 H6            1 RES     
    9746 H6        -362.6701  -212.6446   344.7609 H6            1 RES     
    9747 H6        -362.0541  -211.7496   346.1573 H6            1 RES     
    9748 H6        -362.6575  -210.3558   344.2384 H6            1 RES     
    9749 H6        -364.3557  -210.9427   344.2524 H6            1 RES     
    9750 H6        -363.0150  -209.3051   346.5218 H6            1 RES     
    9751 H6        -364.7199  -209.8874   346.4772 H6            1 RES     
    9752 H6        -365.1567  -208.5011   344.4276 H6            1 RES     
    9753 H6        -364.6771  -207.5506   345.8784 H6            1 RES     
    9754 H6        -362.7909  -208.2855   343.5473 H6            1 RES     
    9755 H6        -362.3357  -207.3356   345.0066 H6            1 RES     
    9756 H6        -362.7314  -205.9491   342.9794 H6            1 RES     
    9757 H6        -364.4195  -206.5561   342.8490 H6            1 RES     
    9758 H6        -364.9647  -205.4493   345.0473 H6            1 RES     
    9759 H6        -364.2925  -204.2813   343.8629 H6            1 RES     
    9760 H6        -363.2408  -204.9044   345.1877 H6            1 RES     
    9761 C0        -359.4915  -218.9853   361.2045 C0            1 RES     
    9762 C0        -358.6634  -220.1348   361.9087 C0            1 RES     
    9763 C0        -357.7515  -220.6645   361.0594 C0            1 RES     
    9764 S1        -356.7993  -221.8680   361.7390 S1            1 RES     
    9765 C0        -357.5561  -221.7509   363.2559 C0            1 RES     
    9766 C0        -358.5991  -220.8194   363.1520 C0            1 RES     
    9767 C0        -357.9109  -220.0926   359.7743 C0            1 RES     
    9768 C0        -358.8673  -219.1932   359.8202 C0            1 RES     
    9769 C0        -359.2065  -218.7369   358.5015 C0            1 RES     
    9770 C0        -358.4517  -219.3724   357.5324 C0            1 RES     
    9771 S1        -357.2211  -220.5148   358.1846 S1            1 RES     
    9772 H2        -359.2375  -220.6373   363.9774 H2            1 RES     
    9773 H2        -360.0209  -218.1096   358.2931 H2            1 RES     
    9774 N3        -357.2417  -222.5904   366.9490 N3            1 RES     
    9775 C0        -357.6709  -222.0454   365.7761 C0            1 RES     
    9776 C0        -357.1265  -222.4389   364.5247 C0            1 RES     
    9777 C0        -356.1270  -223.4350   364.5649 C0            1 RES     
    9778 N3        -355.4964  -223.9414   363.4734 N3            1 RES     
    9779 S1        -354.4601  -225.0428   364.1358 S1            1 RES     
    9780 N3        -354.7403  -224.9297   365.7564 N3            1 RES     
    9781 C0        -355.7101  -223.9790   365.8151 C0            1 RES     
    9782 C0        -356.2766  -223.5410   366.9994 C0            1 RES     
    9783 H4        -358.4166  -221.2805   365.8419 H4            1 RES     
    9784 C5        -350.6758  -220.8021   367.4378 C5            1 RES     
    9785 C5        -351.5554  -221.4810   366.3880 C5            1 RES     
    9786 C5        -353.0159  -220.9995   366.4205 C5            1 RES     
    9787 C5        -353.1809  -219.5201   366.0267 C5            1 RES     
    9788 C5        -354.6621  -219.1122   366.0374 C5            1 RES     
    9789 C5        -354.8543  -217.6765   365.5013 C5            1 RES     
    9790 C5        -356.3290  -217.1991   365.4239 C5            1 RES     
    9791 C5        -357.1928  -218.2247   364.6877 C5            1 RES     
    9792 C5        -358.5712  -217.7613   364.1529 C5            1 RES     
    9793 C5        -359.7326  -217.4526   365.1747 C5            1 RES     
    9794 C5        -360.2072  -218.8239   365.7305 C5            1 RES     
    9795 C5        -361.3520  -219.1008   366.7122 C5            1 RES     
    9796 C5        -361.3738  -220.6577   366.8632 C5            1 RES     
    9797 C5        -362.4194  -221.2755   367.7899 C5            1 RES     
    9798 C5        -363.8370  -221.1810   367.2395 C5            1 RES     
    9799 C5        -358.4524  -216.9738   362.8400 C5            1 RES     
    9800 C0        -359.5099  -217.4284   361.7523 C0            1 RES     
    9801 C5        -359.7510  -216.2262   360.7406 C5            1 RES     
    9802 C5        -361.2247  -215.7381   360.5151 C5            1 RES     
    9803 C5        -361.9975  -216.5182   359.4126 C5            1 RES     
    9804 C5        -361.6262  -216.1441   357.9580 C5            1 RES     
    9805 C5        -362.1940  -217.1210   356.9097 C5            1 RES     
    9806 C5        -363.7172  -217.0645   356.7137 C5            1 RES     
    9807 C5        -364.2473  -215.7220   356.1739 C5            1 RES     
    9808 C5        -363.6461  -215.3366   354.8186 C5            1 RES     
    9809 C5        -361.3476  -214.1735   360.3499 C5            1 RES     
    9810 C5        -360.3348  -213.4782   359.3988 C5            1 RES     
    9811 C5        -360.6503  -211.9956   359.0984 C5            1 RES     
    9812 C5        -360.6367  -211.0606   360.3241 C5            1 RES     
    9813 C5        -360.8990  -209.5793   359.9571 C5            1 RES     
    9814 C5        -359.7711  -208.9412   359.1164 C5            1 RES     
    9815 C5        -360.0286  -207.4707   358.7358 C5            1 RES     
    9816 C5        -360.0830  -206.5211   359.9326 C5            1 RES     
    9817 H6        -350.5964  -219.7121   367.2525 H6            1 RES     
    9818 H6        -349.6525  -221.2312   367.3957 H6            1 RES     
    9819 H6        -351.0907  -220.9755   368.4536 H6            1 RES     
    9820 H6        -351.1228  -221.3197   365.3763 H6            1 RES     
    9821 H6        -351.5475  -222.5736   366.5944 H6            1 RES     
    9822 H6        -353.5861  -221.6192   365.6926 H6            1 RES     
    9823 H6        -353.4411  -221.1773   367.4318 H6            1 RES     
    9824 H6        -352.7696  -219.3864   365.0010 H6            1 RES     
    9825 H6        -352.6267  -218.8594   366.7242 H6            1 RES     
    9826 H6        -355.1983  -219.8257   365.3760 H6            1 RES     
    9827 H6        -355.0722  -219.1959   367.0665 H6            1 RES     
    9828 H6        -354.2762  -216.9564   366.1192 H6            1 RES     
    9829 H6        -354.4365  -217.6507   364.4697 H6            1 RES     
    9830 H6        -356.7545  -217.0299   366.4363 H6            1 RES     
    9831 H6        -356.3271  -216.2327   364.8750 H6            1 RES     
    9832 H6        -357.3170  -219.1029   365.3484 H6            1 RES     
    9833 H6        -356.6184  -218.5865   363.8046 H6            1 RES     
    9834 H6        -358.9255  -218.6260   363.7219 H6            1 RES     
    9835 H6        -359.3929  -216.7499   365.9643 H6            1 RES     
    9836 H6        -360.5971  -217.0016   364.6391 H6            1 RES     
    9837 H6        -360.5710  -219.3562   364.8316 H6            1 RES     
    9838 H6        -359.3134  -219.2899   366.1784 H6            1 RES     
    9839 H6        -362.3139  -218.7277   366.2988 H6            1 RES     
    9840 H6        -361.1536  -218.6216   367.6933 H6            1 RES     
    9841 H6        -361.4892  -221.1393   365.8633 H6            1 RES     
    9842 H6        -360.3849  -220.9704   367.2650 H6            1 RES     
    9843 H6        -362.3493  -220.8261   368.8012 H6            1 RES     
    9844 H6        -362.1798  -222.3608   367.8744 H6            1 RES     
    9845 H6        -363.8943  -221.6715   366.2423 H6            1 RES     
    9846 H6        -364.1580  -220.1250   367.1536 H6            1 RES     
    9847 H6        -364.5260  -221.7182   367.9259 H6            1 RES     
    9848 H6        -357.4668  -217.1289   362.3502 H6            1 RES     
    9849 H6        -358.5066  -215.9011   363.1259 H6            1 RES     
    9850 H6        -359.3020  -215.3473   361.2408 H6            1 RES     
    9851 H6        -359.1517  -216.2986   359.8114 H6            1 RES     
    9852 H6        -361.7659  -215.9562   361.4635 H6            1 RES     
    9853 H6        -361.8372  -217.6004   359.6002 H6            1 RES     
    9854 H6        -363.0854  -216.3230   359.5302 H6            1 RES     
    9855 H6        -361.9619  -215.1175   357.7174 H6            1 RES     
    9856 H6        -360.5253  -216.1487   357.8510 H6            1 RES     
    9857 H6        -361.7016  -216.9198   355.9366 H6            1 RES     
    9858 H6        -361.9204  -218.1598   357.1862 H6            1 RES     
    9859 H6        -364.2255  -217.3017   357.6717 H6            1 RES     
    9860 H6        -363.9913  -217.8583   355.9848 H6            1 RES     
    9861 H6        -364.0644  -214.9058   356.9027 H6            1 RES     
    9862 H6        -365.3466  -215.8201   356.0472 H6            1 RES     
    9863 H6        -363.8211  -216.1413   354.0727 H6            1 RES     
    9864 H6        -364.1216  -214.4030   354.4530 H6            1 RES     
    9865 H6        -362.5566  -215.1440   354.9020 H6            1 RES     
    9866 H6        -361.1828  -213.7126   361.3477 H6            1 RES     
    9867 H6        -362.3921  -213.9360   360.0523 H6            1 RES     
    9868 H6        -360.3024  -213.9679   358.4164 H6            1 RES     
    9869 H6        -359.3100  -213.5523   359.8209 H6            1 RES     
    9870 H6        -359.8782  -211.6592   358.3782 H6            1 RES     
    9871 H6        -361.6415  -211.9259   358.5980 H6            1 RES     
    9872 H6        -359.6617  -211.1351   360.8528 H6            1 RES     
    9873 H6        -361.4391  -211.3823   361.0187 H6            1 RES     
    9874 H6        -361.8674  -209.4943   359.4168 H6            1 RES     
    9875 H6        -360.9869  -209.0149   360.9112 H6            1 RES     
    9876 H6        -359.6667  -209.4935   358.1616 H6            1 RES     
    9877 H6        -358.8086  -209.0123   359.6686 H6            1 RES     
    9878 H6        -359.1938  -207.1367   358.0805 H6            1 RES     
    9879 H6        -360.9730  -207.3900   358.1557 H6            1 RES     
    9880 H6        -360.9383  -206.7593   360.5961 H6            1 RES     
    9881 H6        -360.2145  -205.4797   359.5677 H6            1 RES     
    9882 H6        -359.1363  -206.5739   360.5110 H6            1 RES     
    9883 C0        -356.1592  -224.4890   372.3031 C0            1 RES     
    9884 C0        -355.5011  -225.8996   372.5864 C0            1 RES     
    9885 C0        -354.8592  -226.3637   371.4881 C0            1 RES     
    9886 S1        -354.0965  -227.8418   371.7130 S1            1 RES     
    9887 C0        -354.5783  -227.9577   373.3383 C0            1 RES     
    9888 C0        -355.4018  -226.8603   373.6283 C0            1 RES     
    9889 C0        -355.0806  -225.4840   370.4013 C0            1 RES     
    9890 C0        -355.8053  -224.4681   370.8120 C0            1 RES     
    9891 C0        -356.2301  -223.6595   369.7039 C0            1 RES     
    9892 C0        -355.7801  -224.1686   368.4993 C0            1 RES     
    9893 S1        -354.7396  -225.6306   368.6568 S1            1 RES     
    9894 H2        -355.8573  -226.7706   374.5803 H2            1 RES     
    9895 H2        -356.9133  -222.8680   369.7877 H2            1 RES     
    9896 N3        -353.9086  -229.6921   376.6528 N3            1 RES     
    9897 C0        -354.3798  -228.8176   375.7200 C0            1 RES     
    9898 C0        -354.1230  -228.9916   374.3340 C0            1 RES     
    9899 C0        -353.3648  -230.1279   373.9781 C0            1 RES     
    9900 N3        -353.0253  -230.4629   372.7061 N3            1 RES     
    9901 S1        -352.1620  -231.8541   372.9190 S1            1 RES     
    9902 N3        -352.1691  -232.0820   374.5517 N3            1 RES     
    9903 C0        -352.8937  -231.0177   374.9876 C0            1 RES     
    9904 C0        -353.1723  -230.7813   376.3225 C0            1 RES     
    9905 H4        -354.9267  -227.9719   376.0819 H4            1 RES     
    9906 C5        -347.1137  -229.2493   376.2262 C5            1 RES     
    9907 C5        -348.2632  -229.4946   375.2489 C5            1 RES     
    9908 C5        -349.5659  -228.7865   375.6583 C5            1 RES     
    9909 C5        -349.4673  -227.2506   375.6130 C5            1 RES     
    9910 C5        -350.8089  -226.6040   375.9905 C5            1 RES     
    9911 C5        -350.7668  -225.0712   375.8049 C5            1 RES     
    9912 C5        -352.1003  -224.3385   376.1107 C5            1 RES     
    9913 C5        -353.2623  -224.9922   375.3610 C5            1 RES     
    9914 C5        -354.5734  -224.1811   375.2063 C5            1 RES     
    9915 C5        -355.4781  -223.9254   376.4730 C5            1 RES     
    9916 C5        -356.1473  -225.2846   376.8186 C5            1 RES     
    9917 C5        -357.1669  -225.5819   377.9245 C5            1 RES     
    9918 C5        -357.4984  -227.1015   377.7566 C5            1 RES     
    9919 C5        -358.5033  -227.7288   378.7213 C5            1 RES     
    9920 C5        -359.9333  -227.2596   378.4841 C5            1 RES     
    9921 C5        -354.4843  -223.1375   374.0833 C5            1 RES     
    9922 C0        -355.7633  -223.1283   373.1494 C0            1 RES     
    9923 C5        -355.8887  -221.6972   372.4691 C5            1 RES     
    9924 C5        -357.2407  -220.9192   372.6347 C5            1 RES     
    9925 C5        -358.3166  -221.2673   371.5657 C5            1 RES     
    9926 C5        -358.0930  -220.6293   370.1741 C5            1 RES     
    9927 C5        -359.0049  -221.2143   369.0777 C5            1 RES     
    9928 C5        -360.4926  -220.8470   369.1933 C5            1 RES     
    9929 C5        -360.7974  -219.3432   369.0501 C5            1 RES     
    9930 C5        -360.3346  -218.7583   367.7119 C5            1 RES     
    9931 C5        -357.0495  -219.3635   372.8182 C5            1 RES     
    9932 C5        -356.0634  -218.6506   371.8521 C5            1 RES     
    9933 C5        -356.0955  -217.1074   371.9260 C5            1 RES     
    9934 C5        -355.7016  -216.5076   373.2905 C5            1 RES     
    9935 C5        -355.6926  -214.9591   373.2900 C5            1 RES     
    9936 C5        -354.5912  -214.3473   372.3963 C5            1 RES     
    9937 C5        -354.5818  -212.8067   372.3796 C5            1 RES     
    9938 C5        -354.2546  -212.1743   373.7323 C5            1 RES     
    9939 H6        -346.8315  -228.1777   376.2549 H6            1 RES     
    9940 H6        -346.2235  -229.8285   375.9020 H6            1 RES     
    9941 H6        -347.4013  -229.5836   377.2457 H6            1 RES     
    9942 H6        -347.9605  -229.1759   374.2274 H6            1 RES     
    9943 H6        -348.4586  -230.5890   375.2231 H6            1 RES     
    9944 H6        -350.3565  -229.1058   374.9427 H6            1 RES     
    9945 H6        -349.8652  -229.1221   376.6747 H6            1 RES     
    9946 H6        -349.1930  -226.9512   374.5765 H6            1 RES     
    9947 H6        -348.6879  -226.8820   376.3108 H6            1 RES     
    9948 H6        -351.5768  -227.0347   375.3132 H6            1 RES     
    9949 H6        -351.0708  -226.8566   377.0402 H6            1 RES     
    9950 H6        -349.9634  -224.6312   376.4338 H6            1 RES     
    9951 H6        -350.5103  -224.8747   374.7395 H6            1 RES     
    9952 H6        -352.3255  -224.3428   377.1988 H6            1 RES     
    9953 H6        -351.9731  -223.2851   375.7800 H6            1 RES     
    9954 H6        -353.4724  -225.9665   375.8404 H6            1 RES     
    9955 H6        -352.9154  -225.2287   374.3293 H6            1 RES     
    9956 H6        -355.1640  -224.8428   374.6845 H6            1 RES     
    9957 H6        -354.8832  -223.5012   377.3089 H6            1 RES     
    9958 H6        -356.2956  -223.2160   376.2165 H6            1 RES     
    9959 H6        -356.7451  -225.5160   375.9170 H6            1 RES     
    9960 H6        -355.3176  -225.9928   376.9822 H6            1 RES     
    9961 H6        -358.0772  -224.9588   377.7880 H6            1 RES     
    9962 H6        -356.7281  -225.3918   378.9258 H6            1 RES     
    9963 H6        -357.8605  -227.3040   376.7208 H6            1 RES     
    9964 H6        -356.5510  -227.6689   377.8891 H6            1 RES     
    9965 H6        -358.1902  -227.5520   379.7702 H6            1 RES     
    9966 H6        -358.4913  -228.8279   378.5355 H6            1 RES     
    9967 H6        -360.2408  -227.4814   377.4379 H6            1 RES     
    9968 H6        -360.0304  -226.1740   378.6781 H6            1 RES     
    9969 H6        -360.6121  -227.8153   379.1660 H6            1 RES     
    9970 H6        -353.6380  -223.3420   373.3924 H6            1 RES     
    9971 H6        -354.2652  -222.1711   374.5865 H6            1 RES     
    9972 H6        -355.1934  -221.0548   373.0420 H6            1 RES     
    9973 H6        -355.4626  -221.6505   371.4472 H6            1 RES     
    9974 H6        -357.6699  -221.2581   373.6047 H6            1 RES     
    9975 H6        -358.3654  -222.3740   371.4948 H6            1 RES     
    9976 H6        -359.3081  -220.9182   371.9271 H6            1 RES     
    9977 H6        -358.2333  -219.5325   370.2164 H6            1 RES     
    9978 H6        -357.0466  -220.8011   369.8591 H6            1 RES     
    9979 H6        -358.6300  -220.8771   368.0900 H6            1 RES     
    9980 H6        -358.9218  -222.3204   369.0793 H6            1 RES     
    9981 H6        -360.8927  -221.2122   370.1623 H6            1 RES     
    9982 H6        -361.0346  -221.3843   368.3846 H6            1 RES     
    9983 H6        -360.3386  -218.7686   369.8808 H6            1 RES     
    9984 H6        -361.8986  -219.2144   369.1194 H6            1 RES     
    9985 H6        -360.7857  -219.3194   366.8656 H6            1 RES     
    9986 H6        -360.6483  -217.6962   367.6422 H6            1 RES     
    9987 H6        -359.2291  -218.7849   367.6221 H6            1 RES     
    9988 H6        -356.6444  -219.1890   373.8383 H6            1 RES     
    9989 H6        -358.0513  -218.8829   372.7812 H6            1 RES     
    9990 H6        -356.2818  -218.8908   370.8031 H6            1 RES     
    9991 H6        -355.0272  -219.0011   372.0457 H6            1 RES     
    9992 H6        -355.3845  -216.7501   371.1549 H6            1 RES     
    9993 H6        -357.1117  -216.7484   371.6500 H6            1 RES     
    9994 H6        -354.6979  -216.8751   373.5959 H6            1 RES     
    9995 H6        -356.4426  -216.8394   374.0459 H6            1 RES     
    9996 H6        -356.6893  -214.5801   372.9744 H6            1 RES     
    9997 H6        -355.5158  -214.6311   374.3377 H6            1 RES     
    9998 H6        -354.7494  -214.6664   371.3472 H6            1 RES     
    9999 H6        -353.5954  -214.7149   372.7273 H6            1 RES     
   10000 H6        -353.8011  -212.4782   371.6582 H6            1 RES     
   10001 H6        -355.5622  -212.4265   372.0202 H6            1 RES     
   10002 H6        -355.0334  -212.4097   374.4850 H6            1 RES     
   10003 H6        -354.2130  -211.0695   373.6192 H6            1 RES     
   10004 H6        -353.2663  -212.5279   374.0952 H6            1 RES     
   10005 C0        -352.4781  -232.9676   381.1990 C0            1 RES     
   10006 C0        -352.1022  -234.4979   381.0576 C0            1 RES     
   10007 C0        -351.7437  -234.7928   379.7856 C0            1 RES     
   10008 S1        -351.2899  -236.3920   379.5542 S1            1 RES     
   10009 C0        -351.5398  -236.8045   381.1836 C0            1 RES     
   10010 C0        -352.0577  -235.6807   381.8433 C0            1 RES     
   10011 C0        -351.9301  -233.6553   378.9637 C0            1 RES     
   10012 C0        -352.3522  -232.6554   379.7037 C0            1 RES     
   10013 C0        -352.7532  -231.5451   378.8860 C0            1 RES     
   10014 C0        -352.6055  -231.8242   377.5395 C0            1 RES     
   10015 S1        -351.8898  -233.4407   377.1935 S1            1 RES     
   10016 H2        -352.3379  -235.7414   382.8630 H2            1 RES     
   10017 H2        -353.2315  -230.6892   379.2587 H2            1 RES     
   10018 N3        -350.7742  -239.3663   383.8842 N3            1 RES     
   10019 C0        -351.1802  -238.2267   383.2571 C0            1 RES     
   10020 C0        -351.1741  -238.1087   381.8417 C0            1 RES     
   10021 C0        -350.7373  -239.2425   381.1232 C0            1 RES     
   10022 N3        -350.6689  -239.3199   379.7687 N3            1 RES     
   10023 S1        -350.1011  -240.8509   379.5243 S1            1 RES     
   10024 N3        -349.9155  -241.4552   381.0468 N3            1 RES     
   10025 C0        -350.3235  -240.4150   381.8210 C0            1 RES     
   10026 C0        -350.3448  -240.4575   383.2041 C0            1 RES     
   10027 H4        -351.4741  -237.4088   383.8817 H4            1 RES     
   10028 C5        -344.1810  -240.0318   382.2609 C5            1 RES     
   10029 C5        -345.4878  -239.8326   381.4933 C5            1 RES     
   10030 C5        -346.5340  -239.0252   382.2804 C5            1 RES     
   10031 C5        -346.1172  -237.5642   382.5306 C5            1 RES     
   10032 C5        -347.2188  -236.8012   383.2821 C5            1 RES     
   10033 C5        -346.8781  -235.3000   383.4078 C5            1 RES     
   10034 C5        -347.9640  -234.4390   384.1065 C5            1 RES     
   10035 C5        -349.3366  -234.6821   383.4765 C5            1 RES     
   10036 C5        -350.4522  -233.6407   383.7447 C5            1 RES     
   10037 C5        -351.0841  -233.5390   385.1865 C5            1 RES     
   10038 C5        -351.9697  -234.8025   385.3701 C5            1 RES     
   10039 C5        -352.8546  -235.1707   386.5669 C5            1 RES     
   10040 C5        -353.5242  -236.5247   386.1601 C5            1 RES     
   10041 C5        -354.4861  -237.1773   387.1514 C5            1 RES     
   10042 C5        -355.8018  -236.4222   387.2936 C5            1 RES     
   10043 C5        -350.3090  -232.3925   382.8619 C5            1 RES     
   10044 C0        -351.6801  -231.9378   382.2125 C0            1 RES     
   10045 C5        -351.5958  -230.3869   381.8747 C5            1 RES     
   10046 C5        -352.7107  -229.4462   382.4515 C5            1 RES     
   10047 C5        -353.9819  -229.3364   381.5608 C5            1 RES     
   10048 C5        -353.8351  -228.4354   380.3116 C5            1 RES     
   10049 C5        -355.0027  -228.5742   379.3150 C5            1 RES     
   10050 C5        -356.3438  -227.9902   379.7862 C5            1 RES     
   10051 C5        -356.3379  -226.4661   380.0132 C5            1 RES     
   10052 C5        -355.9637  -225.6704   378.7587 C5            1 RES     
   10053 C5        -352.1665  -228.0369   382.9076 C5            1 RES     
   10054 C5        -351.2045  -227.2989   381.9359 C5            1 RES     
   10055 C5        -350.8949  -225.8363   382.3272 C5            1 RES     
   10056 C5        -350.1848  -225.6564   383.6836 C5            1 RES     
   10057 C5        -349.8452  -224.1783   383.9966 C5            1 RES     
   10058 C5        -348.7829  -223.5743   383.0518 C5            1 RES     
   10059 C5        -348.4471  -222.1000   383.3475 C5            1 RES     
   10060 C5        -347.7962  -221.8743   384.7121 C5            1 RES     
   10061 H6        -343.6752  -239.0641   382.4524 H6            1 RES     
   10062 H6        -343.4930  -240.6640   381.6610 H6            1 RES     
   10063 H6        -344.3796  -240.5430   383.2269 H6            1 RES     
   10064 H6        -345.2783  -239.3385   380.5194 H6            1 RES     
   10065 H6        -345.9142  -240.8379   381.2833 H6            1 RES     
   10066 H6        -347.4714  -239.0219   381.6801 H6            1 RES     
   10067 H6        -346.7446  -239.5350   383.2453 H6            1 RES     
   10068 H6        -345.9415  -237.0800   381.5439 H6            1 RES     
   10069 H6        -345.1827  -237.5143   383.1260 H6            1 RES     
   10070 H6        -348.1525  -236.9173   382.6915 H6            1 RES     
   10071 H6        -347.3707  -237.2460   384.2887 H6            1 RES     
   10072 H6        -345.9153  -235.1696   383.9470 H6            1 RES     
   10073 H6        -346.7457  -234.9040   382.3757 H6            1 RES     
   10074 H6        -348.0217  -234.6622   385.1934 H6            1 RES     
   10075 H6        -347.6649  -233.3762   383.9789 H6            1 RES     
   10076 H6        -349.6768  -235.6901   383.7788 H6            1 RES     
   10077 H6        -349.2045  -234.7237   382.3713 H6            1 RES     
   10078 H6        -351.2409  -234.0456   383.2224 H6            1 RES     
   10079 H6        -350.2955  -233.4363   385.9612 H6            1 RES     
   10080 H6        -351.7598  -232.6570   385.2415 H6            1 RES     
   10081 H6        -352.7296  -234.7047   384.5721 H6            1 RES     
   10082 H6        -351.2957  -235.6633   385.2238 H6            1 RES     
   10083 H6        -353.6205  -234.3836   386.7374 H6            1 RES     
   10084 H6        -352.2422  -235.3038   387.4827 H6            1 RES     
   10085 H6        -354.0701  -236.4087   385.1939 H6            1 RES     
   10086 H6        -352.7110  -237.2642   385.9900 H6            1 RES     
   10087 H6        -353.9911  -237.3124   388.1343 H6            1 RES     
   10088 H6        -354.7369  -238.1853   386.7471 H6            1 RES     
   10089 H6        -356.3006  -236.3317   386.3030 H6            1 RES     
   10090 H6        -355.6349  -235.4140   387.7195 H6            1 RES     
   10091 H6        -356.4753  -236.9963   387.9654 H6            1 RES     
   10092 H6        -349.6375  -232.5719   381.9945 H6            1 RES     
   10093 H6        -349.8166  -231.6270   383.4996 H6            1 RES     
   10094 H6        -350.7024  -230.0310   382.4221 H6            1 RES     
   10095 H6        -351.3253  -230.1742   380.8214 H6            1 RES     
   10096 H6        -353.0542  -229.9252   383.3961 H6            1 RES     
   10097 H6        -354.2760  -230.3684   381.2768 H6            1 RES     
   10098 H6        -354.8114  -228.9151   382.1690 H6            1 RES     
   10099 H6        -353.7300  -227.3729   380.6024 H6            1 RES     
   10100 H6        -352.9079  -228.7080   379.7735 H6            1 RES     
   10101 H6        -354.7146  -228.0830   378.3634 H6            1 RES     
   10102 H6        -355.1586  -229.6460   379.0753 H6            1 RES     
   10103 H6        -356.6650  -228.4993   380.7189 H6            1 RES     
   10104 H6        -357.1015  -228.2166   379.0043 H6            1 RES     
   10105 H6        -355.6494  -226.1947   380.8397 H6            1 RES     
   10106 H6        -357.3636  -226.1666   380.3173 H6            1 RES     
   10107 H6        -356.6442  -225.9264   377.9186 H6            1 RES     
   10108 H6        -356.0499  -224.5840   378.9681 H6            1 RES     
   10109 H6        -354.9150  -225.8680   378.4550 H6            1 RES     
   10110 H6        -351.5874  -228.1833   383.8448 H6            1 RES     
   10111 H6        -353.0367  -227.3934   383.1621 H6            1 RES     
   10112 H6        -351.6217  -227.2409   380.9218 H6            1 RES     
   10113 H6        -350.2503  -227.8612   381.8517 H6            1 RES     
   10114 H6        -350.2458  -225.4362   381.5231 H6            1 RES     
   10115 H6        -351.8402  -225.2498   382.3303 H6            1 RES     
   10116 H6        -349.2490  -226.2558   383.7095 H6            1 RES     
   10117 H6        -350.8597  -226.0231   384.4835 H6            1 RES     
   10118 H6        -350.7734  -223.5666   383.9620 H6            1 RES     
   10119 H6        -349.4497  -224.1447   385.0354 H6            1 RES     
   10120 H6        -349.1589  -223.6023   382.0099 H6            1 RES     
   10121 H6        -347.8509  -224.1785   383.1037 H6            1 RES     
   10122 H6        -347.7295  -221.7514   382.5720 H6            1 RES     
   10123 H6        -349.3657  -221.4797   383.2680 H6            1 RES     
   10124 H6        -348.4874  -222.1417   385.5363 H6            1 RES     
   10125 H6        -347.5366  -220.7992   384.8204 H6            1 RES     
   10126 H6        -346.8638  -222.4715   384.7990 H6            1 RES     
   10127 C0        -349.4214  -243.8264   387.3078 C0            1 RES     
   10128 C0        -349.4063  -245.3207   386.7884 C0            1 RES     
   10129 C0        -349.3110  -245.3631   385.4384 C0            1 RES     
   10130 S1        -349.2487  -246.9156   384.8037 S1            1 RES     
   10131 C0        -349.3375  -247.6530   386.3320 C0            1 RES     
   10132 C0        -349.5000  -246.6453   387.2935 C0            1 RES     
   10133 C0        -349.3693  -244.0484   384.9166 C0            1 RES     
   10134 C0        -349.4539  -243.1949   385.9116 C0            1 RES     
   10135 C0        -349.7247  -241.8696   385.4294 C0            1 RES     
   10136 C0        -349.8405  -241.8423   384.0515 C0            1 RES     
   10137 S1        -349.5460  -243.4299   383.2530 S1            1 RES     
   10138 H2        -349.6329  -246.8965   388.3139 H2            1 RES     
   10139 H2        -349.9485  -241.0566   386.0532 H2            1 RES     
   10140 N3        -348.7468  -250.8763   388.2565 N3            1 RES     
   10141 C0        -348.9879  -249.5674   387.9642 C0            1 RES     
   10142 C0        -349.1658  -249.1195   386.6282 C0            1 RES     
   10143 C0        -349.0925  -250.1087   385.6238 C0            1 RES     
   10144 N3        -349.2430  -249.8728   384.2945 N3            1 RES     
   10145 S1        -349.0580  -251.3770   383.6393 S1            1 RES     
   10146 N3        -348.7830  -252.3485   384.9424 N3            1 RES     
   10147 C0        -348.8403  -251.4672   385.9757 C0            1 RES     
   10148 C0        -348.6657  -251.8326   387.2991 C0            1 RES     
   10149 H4        -349.0047  -248.8828   388.7868 H4            1 RES     
   10150 C5        -342.7619  -252.2810   385.2974 C5            1 RES     
   10151 C5        -344.0946  -251.6796   384.8517 C5            1 RES     
   10152 C5        -344.8161  -250.9120   385.9725 C5            1 RES     
   10153 C5        -344.0645  -249.6484   386.4301 C5            1 RES     
   10154 C5        -344.8542  -248.9050   387.5183 C5            1 RES     
   10155 C5        -344.1858  -247.5602   387.8791 C5            1 RES     
   10156 C5        -344.9472  -246.7134   388.9335 C5            1 RES     
   10157 C5        -346.4177  -246.5556   388.5426 C5            1 RES     
   10158 C5        -347.2328  -245.4290   389.2261 C5            1 RES     
   10159 C5        -347.6083  -245.5636   390.7523 C5            1 RES     
   10160 C5        -348.7065  -246.6594   390.8413 C5            1 RES     
   10161 C5        -349.4628  -247.1406   392.0852 C5            1 RES     
   10162 C5        -350.4589  -248.2204   391.5476 C5            1 RES     
   10163 C5        -351.3809  -248.9109   392.5510 C5            1 RES     
   10164 C5        -352.4691  -247.9929   393.0937 C5            1 RES     
   10165 C5        -346.9582  -244.0517   388.6051 C5            1 RES     
   10166 C0        -348.2810  -243.2230   388.3373 C0            1 RES     
   10167 C5        -347.9180  -241.6756   388.3124 C5            1 RES     
   10168 C5        -348.7084  -240.7186   389.2716 C5            1 RES     
   10169 C5        -350.0441  -240.1795   388.6828 C5            1 RES     
   10170 C5        -349.8943  -239.0476   387.6387 C5            1 RES     
   10171 C5        -351.1987  -238.7390   386.8776 C5            1 RES     
   10172 C5        -352.2993  -238.0582   387.7062 C5            1 RES     
   10173 C5        -351.9344  -236.6568   388.2332 C5            1 RES     
   10174 C5        -351.5883  -235.6641   387.1190 C5            1 RES     
   10175 C5        -347.8144  -239.5757   389.8919 C5            1 RES     
   10176 C5        -346.8713  -238.8082   388.9247 C5            1 RES     
   10177 C5        -346.2019  -237.5580   389.5386 C5            1 RES     
   10178 C5        -345.2774  -237.8326   390.7413 C5            1 RES     
   10179 C5        -344.5874  -236.5541   391.2774 C5            1 RES     
   10180 C5        -343.5720  -235.9386   390.2894 C5            1 RES     
   10181 C5        -342.8890  -234.6591   390.8090 C5            1 RES     
   10182 C5        -342.0106  -234.8816   392.0401 C5            1 RES     
   10183 H6        -342.0384  -251.4906   385.5812 H6            1 RES     
   10184 H6        -342.3212  -252.8631   384.4607 H6            1 RES     
   10185 H6        -342.9202  -252.9642   386.1589 H6            1 RES     
   10186 H6        -343.9305  -251.0128   383.9770 H6            1 RES     
   10187 H6        -344.7522  -252.5156   384.5273 H6            1 RES     
   10188 H6        -345.8093  -250.6021   385.5767 H6            1 RES     
   10189 H6        -344.9859  -251.5913   386.8356 H6            1 RES     
   10190 H6        -343.9371  -248.9821   385.5476 H6            1 RES     
   10191 H6        -343.0635  -249.9058   386.8326 H6            1 RES     
   10192 H6        -345.8678  -248.7122   387.1068 H6            1 RES     
   10193 H6        -344.9473  -249.5426   388.4233 H6            1 RES     
   10194 H6        -343.1486  -247.7322   388.2385 H6            1 RES     
   10195 H6        -344.1258  -246.9599   386.9434 H6            1 RES     
   10196 H6        -344.8901  -247.1747   389.9427 H6            1 RES     
   10197 H6        -344.4501  -245.7200   388.9700 H6            1 RES     
   10198 H6        -346.9170  -247.5310   388.6930 H6            1 RES     
   10199 H6        -346.4623  -246.3560   387.4477 H6            1 RES     
   10200 H6        -348.1582  -245.5536   388.7936 H6            1 RES     
   10201 H6        -346.7104  -245.7877   391.3657 H6            1 RES     
   10202 H6        -348.0643  -244.6157   391.1143 H6            1 RES     
   10203 H6        -349.5373  -246.2433   390.2409 H6            1 RES     
   10204 H6        -348.2612  -247.5652   390.3964 H6            1 RES     
   10205 H6        -350.0091  -246.2949   392.5561 H6            1 RES     
   10206 H6        -348.7647  -247.5925   392.8199 H6            1 RES     
   10207 H6        -351.1040  -247.7845   390.7483 H6            1 RES     
   10208 H6        -349.8568  -249.0289   391.0777 H6            1 RES     
   10209 H6        -350.7865  -249.3602   393.3723 H6            1 RES     
   10210 H6        -351.8982  -249.7341   392.0058 H6            1 RES     
   10211 H6        -353.0777  -247.5838   392.2568 H6            1 RES     
   10212 H6        -352.0295  -247.1600   393.6758 H6            1 RES     
   10213 H6        -353.1428  -248.5831   393.7511 H6            1 RES     
   10214 H6        -346.4762  -244.1347   387.6070 H6            1 RES     
   10215 H6        -346.2249  -243.5580   389.2787 H6            1 RES     
   10216 H6        -346.8984  -241.6220   388.7390 H6            1 RES     
   10217 H6        -347.7669  -241.2695   387.2926 H6            1 RES     
   10218 H6        -349.0030  -241.3405   390.1470 H6            1 RES     
   10219 H6        -350.5906  -241.0466   388.2565 H6            1 RES     
   10220 H6        -350.6652  -239.7762   389.5116 H6            1 RES     
   10221 H6        -349.5228  -238.1199   388.1140 H6            1 RES     
   10222 H6        -349.1367  -239.3426   386.8886 H6            1 RES     
   10223 H6        -350.9560  -238.0941   386.0086 H6            1 RES     
   10224 H6        -351.6137  -239.6789   386.4593 H6            1 RES     
   10225 H6        -352.5806  -238.7099   388.5597 H6            1 RES     
   10226 H6        -353.1949  -237.9561   387.0549 H6            1 RES     
   10227 H6        -351.0895  -236.7144   388.9499 H6            1 RES     
   10228 H6        -352.8160  -236.2634   388.7830 H6            1 RES     
   10229 H6        -352.4243  -235.5900   386.3908 H6            1 RES     
   10230 H6        -351.4085  -234.6608   387.5577 H6            1 RES     
   10231 H6        -350.6627  -235.9644   386.5859 H6            1 RES     
   10232 H6        -347.1480  -240.0397   390.6508 H6            1 RES     
   10233 H6        -348.4796  -238.8690   390.4342 H6            1 RES     
   10234 H6        -347.4115  -238.4389   388.0429 H6            1 RES     
   10235 H6        -346.0824  -239.4926   388.5462 H6            1 RES     
   10236 H6        -345.6084  -237.0983   388.7235 H6            1 RES     
   10237 H6        -346.9890  -236.8327   389.8423 H6            1 RES     
   10238 H6        -344.4980  -238.5753   390.4645 H6            1 RES     
   10239 H6        -345.8893  -238.2548   391.5641 H6            1 RES     
   10240 H6        -345.3580  -235.7990   391.5468 H6            1 RES     
   10241 H6        -344.0448  -236.8381   392.2056 H6            1 RES     
   10242 H6        -344.0950  -235.6520   389.3556 H6            1 RES     
   10243 H6        -342.7935  -236.6914   390.0374 H6            1 RES     
   10244 H6        -342.2361  -234.2674   389.9976 H6            1 RES     
   10245 H6        -343.6552  -233.8866   391.0351 H6            1 RES     
   10246 H6        -342.6135  -235.2117   392.9096 H6            1 RES     
   10247 H6        -341.5142  -233.9255   392.3131 H6            1 RES     
   10248 H6        -341.2250  -235.6360   391.8230 H6            1 RES     
   10249 C0        -347.8878  -256.1879   390.3761 C0            1 RES     
   10250 C0        -348.2693  -257.4949   389.5704 C0            1 RES     
   10251 C0        -348.3857  -257.2315   388.2473 C0            1 RES     
   10252 S1        -348.7511  -258.5750   387.3100 S1            1 RES     
   10253 C0        -348.7687  -259.6270   388.6443 C0            1 RES     
   10254 C0        -348.5683  -258.8641   389.8037 C0            1 RES     
   10255 C0        -348.2382  -255.8412   388.0251 C0            1 RES     
   10256 C0        -347.9905  -255.2472   389.1704 C0            1 RES     
   10257 C0        -348.0400  -253.8190   389.0291 C0            1 RES     
   10258 C0        -348.3495  -253.4453   387.7340 C0            1 RES     
   10259 S1        -348.5223  -254.8241   386.5878 S1            1 RES     
   10260 H2        -348.5996  -259.3232   390.7577 H2            1 RES     
   10261 H2        -347.9903  -253.1511   389.8365 H2            1 RES     
   10262 N3        -348.6028  -263.2674   389.7225 N3            1 RES     
   10263 C0        -348.5991  -261.9051   389.7546 C0            1 RES     
   10264 C0        -348.8725  -261.1286   388.5972 C0            1 RES     
   10265 C0        -349.1614  -261.8480   387.4175 C0            1 RES     
   10266 N3        -349.4527  -261.2805   386.2182 N3            1 RES     
   10267 S1        -349.6923  -262.5944   385.2475 S1            1 RES     
   10268 N3        -349.4419  -263.8804   386.2481 N3            1 RES     
   10269 C0        -349.1563  -263.2737   387.4305 C0            1 RES     
   10270 C0        -348.8703  -263.9678   388.5932 C0            1 RES     
   10271 H4        -348.3476  -261.4435   390.6869 H4            1 RES     
   10272 C5        -343.5606  -264.9546   385.4473 C5            1 RES     
   10273 C5        -344.7849  -264.0407   385.3975 C5            1 RES     
   10274 C5        -345.1520  -263.4471   386.7682 C5            1 RES     
   10275 C5        -344.0886  -262.4802   387.3205 C5            1 RES     
   10276 C5        -344.5316  -261.8901   388.6681 C5            1 RES     
   10277 C5        -343.5455  -260.8079   389.1600 C5            1 RES     
   10278 C5        -343.9441  -260.1160   390.4907 C5            1 RES     
   10279 C5        -345.3881  -259.6149   390.4298 C5            1 RES     
   10280 C5        -345.8335  -258.5581   391.4716 C5            1 RES     
   10281 C5        -345.9995  -258.9835   392.9816 C5            1 RES     
   10282 C5        -347.2810  -259.8594   393.0547 C5            1 RES     
   10283 C5        -347.9305  -260.4822   394.2962 C5            1 RES     
   10284 C5        -349.2025  -261.2117   393.7513 C5            1 RES     
   10285 C5        -350.0922  -261.9484   394.7511 C5            1 RES     
   10286 C5        -350.8667  -261.0097   395.6678 C5            1 RES     
   10287 C5        -345.3658  -257.1427   391.1031 C5            1 RES     
   10288 C0        -346.5056  -256.0557   391.2685 C0            1 RES     
   10289 C5        -345.8281  -254.6348   391.4899 C5            1 RES     
   10290 C5        -346.2451  -253.8099   392.7572 C5            1 RES     
   10291 C5        -347.5068  -252.9211   392.5579 C5            1 RES     
   10292 C5        -347.2745  -251.6178   391.7571 C5            1 RES     
   10293 C5        -348.5805  -250.9137   391.3395 C5            1 RES     
   10294 C5        -349.3755  -250.2673   392.4848 C5            1 RES     
   10295 C5        -348.6457  -249.1175   393.2060 C5            1 RES     
   10296 C5        -348.2640  -247.9649   392.2719 C5            1 RES     
   10297 C5        -345.0459  -253.0218   393.4138 C5            1 RES     
   10298 C5        -344.1140  -252.2239   392.4604 C5            1 RES     
   10299 C5        -343.1099  -251.2923   393.1758 C5            1 RES     
   10300 C5        -342.0981  -252.0023   394.0972 C5            1 RES     
   10301 C5        -341.0794  -251.0290   394.7398 C5            1 RES     
   10302 C5        -340.1133  -250.3840   393.7216 C5            1 RES     
   10303 C5        -339.1035  -249.4045   394.3498 C5            1 RES     
   10304 C5        -338.1210  -250.0633   395.3180 C5            1 RES     
   10305 H6        -342.6511  -264.3934   385.7418 H6            1 RES     
   10306 H6        -343.3831  -265.3891   384.4409 H6            1 RES     
   10307 H6        -343.7323  -265.7842   386.1657 H6            1 RES     
   10308 H6        -344.6132  -263.2246   384.6620 H6            1 RES     
   10309 H6        -345.6465  -264.6472   385.0421 H6            1 RES     
   10310 H6        -346.1033  -262.8831   386.6419 H6            1 RES     
   10311 H6        -345.3337  -264.2715   387.4911 H6            1 RES     
   10312 H6        -343.9535  -261.6562   386.5844 H6            1 RES     
   10313 H6        -343.1175  -262.9970   387.4625 H6            1 RES     
   10314 H6        -345.5301  -261.4306   388.5068 H6            1 RES     
   10315 H6        -344.6241  -262.6980   389.4251 H6            1 RES     
   10316 H6        -342.5276  -261.2393   389.2710 H6            1 RES     
   10317 H6        -343.4974  -260.0226   388.3723 H6            1 RES     
   10318 H6        -343.8385  -260.8065   391.3548 H6            1 RES     
   10319 H6        -343.2464  -259.2626   390.6326 H6            1 RES     
   10320 H6        -346.0565  -260.4951   390.4714 H6            1 RES     
   10321 H6        -345.5502  -259.1562   389.4277 H6            1 RES     
   10322 H6        -346.8177  -258.4124   391.2086 H6            1 RES     
   10323 H6        -345.0897  -259.5005   393.3526 H6            1 RES     
   10324 H6        -346.1838  -258.0840   393.6095 H6            1 RES     
   10325 H6        -348.0830  -259.1737   392.7224 H6            1 RES     
   10326 H6        -347.1102  -260.6971   392.3577 H6            1 RES     
   10327 H6        -348.2077  -259.6903   395.0252 H6            1 RES     
   10328 H6        -347.2444  -261.2107   394.7756 H6            1 RES     
   10329 H6        -349.8504  -260.4924   393.1965 H6            1 RES     
   10330 H6        -348.8633  -261.9781   393.0201 H6            1 RES     
   10331 H6        -349.4929  -262.6768   395.3341 H6            1 RES     
   10332 H6        -350.8481  -262.5149   394.1594 H6            1 RES     
   10333 H6        -351.4906  -260.3134   395.0644 H6            1 RES     
   10334 H6        -350.1782  -260.4291   396.3118 H6            1 RES     
   10335 H6        -351.5463  -261.6117   396.3081 H6            1 RES     
   10336 H6        -345.0655  -257.0693   390.0354 H6            1 RES     
   10337 H6        -344.4526  -256.9594   391.7095 H6            1 RES     
   10338 H6        -344.7690  -254.8635   391.7147 H6            1 RES     
   10339 H6        -345.7460  -254.0310   390.5644 H6            1 RES     
   10340 H6        -346.5333  -254.5605   393.5276 H6            1 RES     
   10341 H6        -348.2827  -253.5526   392.0770 H6            1 RES     
   10342 H6        -347.8979  -252.6239   393.5549 H6            1 RES     
   10343 H6        -346.6472  -250.9094   392.3309 H6            1 RES     
   10344 H6        -346.7166  -251.8541   390.8316 H6            1 RES     
   10345 H6        -348.3367  -250.1336   390.5899 H6            1 RES     
   10346 H6        -349.2439  -251.6397   390.8263 H6            1 RES     
   10347 H6        -349.6603  -251.0435   393.2256 H6            1 RES     
   10348 H6        -350.3146  -249.8582   392.0521 H6            1 RES     
   10349 H6        -347.7363  -249.4907   393.7202 H6            1 RES     
   10350 H6        -349.3318  -248.7178   393.9830 H6            1 RES     
   10351 H6        -349.1629  -247.5747   391.7483 H6            1 RES     
   10352 H6        -347.8111  -247.1419   392.8627 H6            1 RES     
   10353 H6        -347.5130  -248.2872   391.5213 H6            1 RES     
   10354 H6        -344.3895  -253.7621   393.9201 H6            1 RES     
   10355 H6        -345.4572  -252.3589   394.2059 H6            1 RES     
   10356 H6        -344.6871  -251.5669   391.7927 H6            1 RES     
   10357 H6        -343.5544  -252.9260   391.8064 H6            1 RES     
   10358 H6        -342.5588  -250.7635   392.3729 H6            1 RES     
   10359 H6        -343.6701  -250.5338   393.7661 H6            1 RES     
   10360 H6        -341.5450  -252.7827   393.5307 H6            1 RES     
   10361 H6        -342.6577  -252.4941   394.9186 H6            1 RES     
   10362 H6        -341.6224  -250.2365   395.3000 H6            1 RES     
   10363 H6        -340.4790  -251.6158   395.4690 H6            1 RES     
   10364 H6        -340.6949  -249.7968   392.9838 H6            1 RES     
   10365 H6        -339.5595  -251.1798   393.1771 H6            1 RES     
   10366 H6        -338.5092  -248.9519   393.5253 H6            1 RES     
   10367 H6        -339.6449  -248.5860   394.8712 H6            1 RES     
   10368 H6        -338.6453  -250.4798   396.2012 H6            1 RES     
   10369 H6        -337.3970  -249.3017   395.6794 H6            1 RES     
   10370 H6        -337.5557  -250.8702   394.8053 H6            1 RES     
   10371 C0        -348.5954  -268.9963   390.5116 C0            1 RES     
   10372 C0        -349.3621  -269.9869   389.5453 C0            1 RES     
   10373 C0        -349.6136  -269.4005   388.3509 C0            1 RES     
   10374 S1        -350.3919  -270.3975   387.2478 S1            1 RES     
   10375 C0        -350.4368  -271.7166   388.3180 C0            1 RES     
   10376 C0        -349.9089  -271.2982   389.5480 C0            1 RES     
   10377 C0        -349.2069  -268.0452   388.3923 C0            1 RES     
   10378 C0        -348.6716  -267.7931   389.5652 C0            1 RES     
   10379 C0        -348.4350  -266.3863   389.7298 C0            1 RES     
   10380 C0        -348.8454  -265.6674   388.6218 C0            1 RES     
   10381 S1        -349.4762  -266.6822   387.2739 S1            1 RES     
   10382 H2        -349.8963  -271.9580   390.3765 H2            1 RES     
   10383 H2        -348.1251  -265.9486   390.6313 H2            1 RES     
   10384 N3        -350.8953  -275.4800   388.5805 N3            1 RES     
   10385 C0        -350.5958  -274.1867   388.8878 C0            1 RES     
   10386 C0        -350.8648  -273.1219   387.9871 C0            1 RES     
   10387 C0        -351.4718  -273.4784   386.7636 C0            1 RES     
   10388 N3        -351.8090  -272.6003   385.7835 N3            1 RES     
   10389 S1        -352.4645  -273.5832   384.6301 S1            1 RES     
   10390 N3        -352.3497  -275.0934   385.2810 N3            1 RES     
   10391 C0        -351.7696  -274.8447   386.4848 C0            1 RES     
   10392 C0        -351.4700  -275.8341   387.4049 C0            1 RES     
   10393 H4        -350.1165  -274.0111   389.8286 H4            1 RES     
   10394 C5        -347.0182  -276.9594   383.1649 C5            1 RES     
   10395 C5        -348.0125  -275.8600   383.5381 C5            1 RES     
   10396 C5        -348.0377  -275.5542   385.0454 C5            1 RES     
   10397 C5        -346.7226  -274.9478   385.5683 C5            1 RES     
   10398 C5        -346.8253  -274.6265   387.0672 C5            1 RES     
   10399 C5        -345.5690  -273.8820   387.5705 C5            1 RES     
   10400 C5        -345.6095  -273.4672   389.0655 C5            1 RES     
   10401 C5        -346.9059  -272.7211   389.3860 C5            1 RES     
   10402 C5        -346.9563  -271.8809   390.6868 C5            1 RES     
   10403 C5        -346.9845  -272.6170   392.0818 C5            1 RES     
   10404 C5        -348.3983  -273.2468   392.2196 C5            1 RES     
   10405 C5        -348.9752  -274.0230   393.4094 C5            1 RES     
   10406 C5        -350.4400  -274.3680   392.9819 C5            1 RES     
   10407 C5        -351.3089  -275.1536   393.9625 C5            1 RES     
   10408 C5        -351.7208  -274.3387   395.1823 C5            1 RES     
   10409 C5        -346.2566  -270.5229   390.5313 C5            1 RES     
   10410 C0        -347.1005  -269.3240   391.1301 C0            1 RES     
   10411 C5        -346.1099  -268.1377   391.5018 C5            1 RES     
   10412 C5        -346.1492  -267.5775   392.9665 C5            1 RES     
   10413 C5        -347.2070  -266.4600   393.1981 C5            1 RES     
   10414 C5        -346.8224  -265.0652   392.6500 C5            1 RES     
   10415 C5        -347.9948  -264.0646   392.6430 C5            1 RES     
   10416 C5        -348.4552  -263.5798   394.0266 C5            1 RES     
   10417 C5        -347.3983  -262.7803   394.8131 C5            1 RES     
   10418 C5        -346.9213  -261.5240   394.0775 C5            1 RES     
   10419 C5        -344.7258  -267.1904   393.5272 C5            1 RES     
   10420 C5        -343.7962  -266.3648   392.5954 C5            1 RES     
   10421 C5        -342.5217  -265.8205   393.2792 C5            1 RES     
   10422 C5        -341.5603  -266.8949   393.8251 C5            1 RES     
   10423 C5        -340.2737  -266.2960   394.4446 C5            1 RES     
   10424 C5        -339.3533  -265.6070   393.4131 C5            1 RES     
   10425 C5        -338.0761  -264.9971   394.0218 C5            1 RES     
   10426 C5        -337.1251  -266.0287   394.6287 C5            1 RES     
   10427 H6        -345.9765  -276.6524   383.3874 H6            1 RES     
   10428 H6        -347.0882  -277.1666   382.0763 H6            1 RES     
   10429 H6        -347.2551  -277.8927   383.7188 H6            1 RES     
   10430 H6        -347.7809  -274.9356   382.9651 H6            1 RES     
   10431 H6        -349.0266  -276.2042   383.2387 H6            1 RES     
   10432 H6        -348.8545  -274.8187   385.2214 H6            1 RES     
   10433 H6        -348.2825  -276.4818   385.6065 H6            1 RES     
   10434 H6        -346.5248  -274.0093   385.0034 H6            1 RES     
   10435 H6        -345.8743  -275.6453   385.4131 H6            1 RES     
   10436 H6        -347.7150  -273.9743   387.1975 H6            1 RES     
   10437 H6        -346.9753  -275.5620   387.6473 H6            1 RES     
   10438 H6        -344.6618  -274.4989   387.3940 H6            1 RES     
   10439 H6        -345.4712  -272.9530   386.9649 H6            1 RES     
   10440 H6        -345.5275  -274.3508   389.7342 H6            1 RES     
   10441 H6        -344.7325  -272.8077   389.2414 H6            1 RES     
   10442 H6        -347.7333  -273.4550   389.3750 H6            1 RES     
   10443 H6        -347.1124  -272.0165   388.5484 H6            1 RES     
   10444 H6        -347.9144  -271.5069   390.6528 H6            1 RES     
   10445 H6        -346.1616  -273.3584   392.1582 H6            1 RES     
   10446 H6        -346.8774  -271.8744   392.9031 H6            1 RES     
   10447 H6        -349.0754  -272.3723   392.1940 H6            1 RES     
   10448 H6        -348.5154  -273.9115   391.3472 H6            1 RES     
   10449 H6        -348.9661  -273.3911   394.3237 H6            1 RES     
   10450 H6        -348.3976  -274.9532   393.5897 H6            1 RES     
   10451 H6        -350.9938  -273.4354   392.7200 H6            1 RES     
   10452 H6        -350.3842  -274.9858   392.0588 H6            1 RES     
   10453 H6        -350.7998  -276.0929   394.2590 H6            1 RES     
   10454 H6        -352.2473  -275.4218   393.4242 H6            1 RES     
   10455 H6        -352.2636  -273.4209   394.8644 H6            1 RES     
   10456 H6        -350.8368  -274.0576   395.7866 H6            1 RES     
   10457 H6        -352.4112  -274.9471   395.8050 H6            1 RES     
   10458 H6        -346.1086  -270.2517   389.4636 H6            1 RES     
   10459 H6        -345.2460  -270.6518   390.9756 H6            1 RES     
   10460 H6        -345.1029  -268.5950   391.4679 H6            1 RES     
   10461 H6        -346.0384  -267.3553   390.7204 H6            1 RES     
   10462 H6        -346.4741  -268.4272   393.6086 H6            1 RES     
   10463 H6        -348.1623  -266.8133   392.7568 H6            1 RES     
   10464 H6        -347.3740  -266.3444   394.2909 H6            1 RES     
   10465 H6        -345.9806  -264.6345   393.2247 H6            1 RES     
   10466 H6        -346.4710  -265.1688   391.6063 H6            1 RES     
   10467 H6        -347.7034  -263.1839   392.0353 H6            1 RES     
   10468 H6        -348.8664  -264.5201   392.1297 H6            1 RES     
   10469 H6        -348.7867  -264.4476   394.6345 H6            1 RES     
   10470 H6        -349.3387  -262.9217   393.8747 H6            1 RES     
   10471 H6        -346.5239  -263.4183   395.0562 H6            1 RES     
   10472 H6        -347.8606  -262.4629   395.7721 H6            1 RES     
   10473 H6        -347.7834  -260.8694   393.8268 H6            1 RES     
   10474 H6        -346.2209  -260.9574   394.7254 H6            1 RES     
   10475 H6        -346.3759  -261.7852   393.1473 H6            1 RES     
   10476 H6        -344.1753  -268.1330   393.7366 H6            1 RES     
   10477 H6        -344.8643  -266.6732   394.5015 H6            1 RES     
   10478 H6        -344.3078  -265.4781   392.1980 H6            1 RES     
   10479 H6        -343.5024  -266.9783   391.7172 H6            1 RES     
   10480 H6        -341.9952  -265.2210   392.5102 H6            1 RES     
   10481 H6        -342.8134  -265.1378   394.1078 H6            1 RES     
   10482 H6        -341.2767  -267.6028   393.0163 H6            1 RES     
   10483 H6        -342.0845  -267.4619   394.6211 H6            1 RES     
   10484 H6        -340.5460  -265.5768   395.2480 H6            1 RES     
   10485 H6        -339.7117  -267.1350   394.9102 H6            1 RES     
   10486 H6        -339.8985  -264.7688   392.9358 H6            1 RES     
   10487 H6        -339.0691  -266.3349   392.6220 H6            1 RES     
   10488 H6        -337.5272  -264.4729   393.2083 H6            1 RES     
   10489 H6        -338.3470  -264.2441   394.7928 H6            1 RES     
   10490 H6        -337.5900  -266.5446   395.4925 H6            1 RES     
   10491 H6        -336.2098  -265.5136   394.9918 H6            1 RES     
   10492 H6        -336.8273  -266.7768   393.8637 H6            1 RES     
   10493 C0        -351.9958  -281.1425   388.1706 C0            1 RES     
   10494 C0        -353.0906  -281.7252   387.1883 C0            1 RES     
   10495 C0        -353.3846  -280.8372   386.2093 C0            1 RES     
   10496 S1        -354.5122  -281.3914   385.0966 S1            1 RES     
   10497 C0        -354.6793  -282.8981   385.8642 C0            1 RES     
   10498 C0        -353.8985  -282.8830   387.0289 C0            1 RES     
   10499 C0        -352.6960  -279.6232   386.4468 C0            1 RES     
   10500 C0        -351.9520  -279.7548   387.5215 C0            1 RES     
   10501 C0        -351.3987  -278.4911   387.9204 C0            1 RES     
   10502 C0        -351.8049  -277.4692   387.0818 C0            1 RES     
   10503 S1        -352.8300  -278.0081   385.7021 S1            1 RES     
   10504 H2        -353.9050  -283.7124   387.6877 H2            1 RES     
   10505 H2        -350.8726  -278.3414   388.8155 H2            1 RES     
   10506 N3        -355.8875  -286.4760   385.4382 N3            1 RES     
   10507 C0        -355.2765  -285.3657   385.9391 C0            1 RES     
   10508 C0        -355.4418  -284.0873   385.3427 C0            1 RES     
   10509 C0        -356.2849  -284.0310   384.2119 C0            1 RES     
   10510 N3        -356.5676  -282.9001   383.5143 N3            1 RES     
   10511 S1        -357.5810  -283.4505   382.3327 S1            1 RES     
   10512 N3        -357.6968  -285.0681   382.6282 N3            1 RES     
   10513 C0        -356.9056  -285.2180   383.7233 C0            1 RES     
   10514 C0        -356.6918  -286.4344   384.3478 C0            1 RES     
   10515 H4        -354.6373  -285.5054   386.7860 H4            1 RES     
   10516 C5        -353.2595  -287.2819   379.1938 C5            1 RES     
   10517 C5        -353.9297  -286.1460   379.9666 C5            1 RES     
   10518 C5        -353.6660  -286.2075   381.4808 C5            1 RES     
   10519 C5        -352.1892  -285.9826   381.8540 C5            1 RES     
   10520 C5        -351.9983  -286.0137   383.3781 C5            1 RES     
   10521 C5        -350.5518  -285.6419   383.7718 C5            1 RES     
   10522 C5        -350.2815  -285.5936   385.2993 C5            1 RES     
   10523 C5        -351.3265  -284.7299   386.0076 C5            1 RES     
   10524 C5        -351.0035  -284.2272   387.4372 C5            1 RES     
   10525 C5        -350.9820  -285.2570   388.6320 C5            1 RES     
   10526 C5        -352.4615  -285.6440   388.9075 C5            1 RES     
   10527 C5        -353.0088  -286.5672   390.0025 C5            1 RES     
   10528 C5        -354.5601  -286.5388   389.8029 C5            1 RES     
   10529 C5        -355.4222  -287.3702   390.7512 C5            1 RES     
   10530 C5        -355.4657  -286.8093   392.1672 C5            1 RES     
   10531 C5        -350.0606  -283.0153   387.4300 C5            1 RES     
   10532 C0        -350.5309  -281.8643   388.4108 C0            1 RES     
   10533 C5        -349.2659  -280.9926   388.8191 C5            1 RES     
   10534 C5        -348.9678  -280.7984   390.3469 C5            1 RES     
   10535 C5        -349.7163  -279.6004   390.9997 C5            1 RES     
   10536 C5        -349.1278  -278.2049   390.6835 C5            1 RES     
   10537 C5        -350.0472  -277.0419   391.1054 C5            1 RES     
   10538 C5        -350.1838  -276.8268   392.6208 C5            1 RES     
   10539 C5        -348.8761  -276.4348   393.3358 C5            1 RES     
   10540 C5        -348.2557  -275.1432   392.7938 C5            1 RES     
   10541 C5        -347.4277  -280.8110   390.6908 C5            1 RES     
   10542 C5        -346.4912  -279.9636   389.7859 C5            1 RES     
   10543 C5        -345.0432  -279.8292   390.3086 C5            1 RES     
   10544 C5        -344.2638  -281.1537   390.4296 C5            1 RES     
   10545 C5        -342.8018  -280.9540   390.8994 C5            1 RES     
   10546 C5        -341.9181  -280.2118   389.8726 C5            1 RES     
   10547 C5        -340.4645  -279.9973   390.3361 C5            1 RES     
   10548 C5        -339.6770  -281.2936   390.5263 C5            1 RES     
   10549 H6        -352.1552  -287.2239   379.2699 H6            1 RES     
   10550 H6        -353.5323  -287.2090   378.1199 H6            1 RES     
   10551 H6        -353.6060  -288.2637   379.5810 H6            1 RES     
   10552 H6        -353.5931  -285.1672   379.5602 H6            1 RES     
   10553 H6        -355.0267  -286.2262   379.8037 H6            1 RES     
   10554 H6        -354.2716  -285.4036   381.9562 H6            1 RES     
   10555 H6        -354.0178  -287.1842   381.8777 H6            1 RES     
   10556 H6        -351.8811  -284.9863   381.4646 H6            1 RES     
   10557 H6        -351.5421  -286.7607   381.4002 H6            1 RES     
   10558 H6        -352.6989  -285.2657   383.8066 H6            1 RES     
   10559 H6        -352.2575  -287.0191   383.7735 H6            1 RES     
   10560 H6        -349.8337  -286.3482   383.3027 H6            1 RES     
   10561 H6        -350.3482  -284.6276   383.3606 H6            1 RES     
   10562 H6        -350.2923  -286.6110   385.7457 H6            1 RES     
   10563 H6        -349.2676  -285.1589   385.4341 H6            1 RES     
   10564 H6        -352.2840  -285.2836   386.0065 H6            1 RES     
   10565 H6        -351.4991  -283.8215   385.3865 H6            1 RES     
   10566 H6        -351.8538  -283.6941   387.6645 H6            1 RES     
   10567 H6        -350.3345  -286.1277   388.3966 H6            1 RES     
   10568 H6        -350.5986  -284.7614   389.5511 H6            1 RES     
   10569 H6        -352.9322  -284.6838   389.1908 H6            1 RES     
   10570 H6        -352.8455  -286.0513   387.9571 H6            1 RES     
   10571 H6        -352.7299  -286.1822   391.0071 H6            1 RES     
   10572 H6        -352.6231  -287.6000   389.8755 H6            1 RES     
   10573 H6        -354.9343  -285.4885   389.8475 H6            1 RES     
   10574 H6        -354.7746  -286.9196   388.7802 H6            1 RES     
   10575 H6        -355.0875  -288.4273   390.7470 H6            1 RES     
   10576 H6        -356.4653  -287.3343   390.3599 H6            1 RES     
   10577 H6        -355.8407  -285.7617   392.1530 H6            1 RES     
   10578 H6        -354.4627  -286.8390   392.6350 H6            1 RES     
   10579 H6        -356.1704  -287.4175   392.7737 H6            1 RES     
   10580 H6        -350.0174  -282.5285   386.4317 H6            1 RES     
   10581 H6        -349.0466  -283.4210   387.6365 H6            1 RES     
   10582 H6        -348.3962  -281.5978   388.5002 H6            1 RES     
   10583 H6        -349.1450  -280.0719   388.2144 H6            1 RES     
   10584 H6        -349.3682  -281.7059   390.8527 H6            1 RES     
   10585 H6        -350.7794  -279.6659   390.6874 H6            1 RES     
   10586 H6        -349.6914  -279.7203   392.1044 H6            1 RES     
   10587 H6        -348.1379  -278.0773   391.1614 H6            1 RES     
   10588 H6        -348.9647  -278.1175   389.5929 H6            1 RES     
   10589 H6        -349.6673  -276.1071   390.6453 H6            1 RES     
   10590 H6        -351.0619  -277.2027   390.6872 H6            1 RES     
   10591 H6        -350.5996  -277.7423   393.0914 H6            1 RES     
   10592 H6        -350.9187  -276.0072   392.7784 H6            1 RES     
   10593 H6        -348.1321  -277.2553   393.2716 H6            1 RES     
   10594 H6        -349.1131  -276.2784   394.4098 H6            1 RES     
   10595 H6        -348.9853  -274.3073   392.8517 H6            1 RES     
   10596 H6        -347.3625  -274.8784   393.3968 H6            1 RES     
   10597 H6        -347.9222  -275.2673   391.7429 H6            1 RES     
   10598 H6        -347.0666  -281.8577   390.5944 H6            1 RES     
   10599 H6        -347.3070  -280.5241   391.7581 H6            1 RES     
   10600 H6        -346.8545  -278.9324   389.6830 H6            1 RES     
   10601 H6        -346.4683  -280.3926   388.7615 H6            1 RES     
   10602 H6        -344.5202  -279.1659   389.5913 H6            1 RES     
   10603 H6        -345.0566  -279.3226   391.2990 H6            1 RES     
   10604 H6        -344.2606  -281.6877   389.4546 H6            1 RES     
   10605 H6        -344.7735  -281.7928   391.1789 H6            1 RES     
   10606 H6        -342.7924  -280.4099   391.8693 H6            1 RES     
   10607 H6        -342.3696  -281.9646   391.0677 H6            1 RES     
   10608 H6        -342.3360  -279.2021   389.6896 H6            1 RES     
   10609 H6        -341.9161  -280.7692   388.9105 H6            1 RES     
   10610 H6        -339.9427  -279.3993   389.5564 H6            1 RES     
   10611 H6        -340.4514  -279.4136   391.2816 H6            1 RES     
   10612 H6        -340.1086  -281.9104   391.3399 H6            1 RES     
   10613 H6        -338.6295  -281.0480   390.8041 H6            1 RES     
   10614 H6        -339.6623  -281.8788   389.5825 H6            1 RES     
   10615 C0        -358.2208  -291.5962   384.1033 C0            1 RES     
   10616 C0        -359.5477  -291.7279   383.2518 C0            1 RES     
   10617 C0        -359.7864  -290.5954   382.5490 C0            1 RES     
   10618 S1        -361.1581  -290.6632   381.5843 S1            1 RES     
   10619 C0        -361.5280  -292.2559   382.0467 C0            1 RES     
   10620 C0        -360.5988  -292.6548   383.0182 C0            1 RES     
   10621 C0        -358.8270  -289.6125   382.8920 C0            1 RES     
   10622 C0        -357.9779  -290.1237   383.7542 C0            1 RES     
   10623 C0        -357.1146  -289.1081   384.2883 C0            1 RES     
   10624 C0        -357.4124  -287.8612   383.7690 C0            1 RES     
   10625 S1        -358.7212  -287.8689   382.5315 S1            1 RES     
   10626 H2        -360.6850  -293.6026   383.4830 H2            1 RES     
   10627 H2        -356.4424  -289.2697   385.0772 H2            1 RES     
   10628 N3        -363.5223  -295.3616   381.1413 N3            1 RES     
   10629 C0        -362.6211  -294.5267   381.7309 C0            1 RES     
   10630 C0        -362.5956  -293.1347   381.4502 C0            1 RES     
   10631 C0        -363.5647  -292.6646   380.5378 C0            1 RES     
   10632 N3        -363.6991  -291.3689   380.1525 N3            1 RES     
   10633 S1        -364.9698  -291.4366   379.1006 S1            1 RES     
   10634 N3        -365.3837  -293.0321   379.0772 N3            1 RES     
   10635 C0        -364.4899  -293.5740   379.9463 C0            1 RES     
   10636 C0        -364.4512  -294.9220   380.2573 C0            1 RES     
   10637 H4        -361.9085  -294.9733   382.3930 H4            1 RES     
   10638 C5        -362.0791  -295.1084   374.4779 C5            1 RES     
   10639 C5        -362.3693  -294.0894   375.5796 C5            1 RES     
   10640 C5        -361.9043  -294.5540   376.9702 C5            1 RES     
   10641 C5        -360.3749  -294.6863   377.0909 C5            1 RES     
   10642 C5        -359.9722  -295.1115   378.5112 C5            1 RES     
   10643 C5        -358.4377  -295.1032   378.6873 C5            1 RES     
   10644 C5        -357.9407  -295.4672   380.1118 C5            1 RES     
   10645 C5        -358.6607  -294.6272   381.1681 C5            1 RES     
   10646 C5        -358.0302  -294.5431   382.5810 C5            1 RES     
   10647 C5        -358.0530  -295.8146   383.5144 C5            1 RES     
   10648 C5        -359.5237  -295.9907   383.9841 C5            1 RES     
   10649 C5        -360.0878  -297.0371   384.9524 C5            1 RES     
   10650 C5        -361.6092  -296.6909   385.0643 C5            1 RES     
   10651 C5        -362.4794  -297.5595   385.9710 C5            1 RES     
   10652 C5        -362.1923  -297.3524   387.4529 C5            1 RES     
   10653 C5        -356.8617  -293.5486   382.6398 C5            1 RES     
   10654 C0        -356.9250  -292.5994   383.9060 C0            1 RES     
   10655 C5        -355.4569  -292.0850   384.2327 C5            1 RES     
   10656 C5        -354.9018  -292.3146   385.6818 C5            1 RES     
   10657 C5        -355.2722  -291.1940   386.6959 C5            1 RES     
   10658 C5        -354.4524  -289.8886   386.5635 C5            1 RES     
   10659 C5        -355.0294  -288.7166   387.3817 C5            1 RES     
   10660 C5        -354.8915  -288.8472   388.9067 C5            1 RES     
   10661 C5        -353.4394  -288.8715   389.4219 C5            1 RES     
   10662 C5        -352.6443  -287.6173   389.0454 C5            1 RES     
   10663 C5        -353.3665  -292.6781   385.7139 C5            1 RES     
   10664 C5        -352.4147  -291.8174   384.8379 C5            1 RES     
   10665 C5        -350.9105  -292.0667   385.0892 C5            1 RES     
   10666 C5        -350.4230  -293.4975   384.7862 C5            1 RES     
   10667 C5        -348.8992  -293.6742   384.9974 C5            1 RES     
   10668 C5        -348.0389  -292.8759   383.9931 C5            1 RES     
   10669 C5        -346.5209  -293.0356   384.2028 C5            1 RES     
   10670 C5        -346.0094  -294.4573   383.9705 C5            1 RES     
   10671 H6        -360.9890  -295.2645   374.3509 H6            1 RES     
   10672 H6        -362.4855  -294.7359   373.5140 H6            1 RES     
   10673 H6        -362.5663  -296.0778   374.7163 H6            1 RES     
   10674 H6        -361.8952  -293.1165   375.3240 H6            1 RES     
   10675 H6        -363.4699  -293.9352   375.6174 H6            1 RES     
   10676 H6        -362.2470  -293.7928   377.7065 H6            1 RES     
   10677 H6        -362.3941  -295.5199   377.2200 H6            1 RES     
   10678 H6        -359.9220  -293.6959   376.8608 H6            1 RES     
   10679 H6        -359.9834  -295.4353   376.3727 H6            1 RES     
   10680 H6        -360.4256  -294.3760   379.2093 H6            1 RES     
   10681 H6        -360.3789  -296.1207   378.7359 H6            1 RES     
   10682 H6        -357.9644  -295.7923   377.9554 H6            1 RES     
   10683 H6        -358.0850  -294.0719   378.4600 H6            1 RES     
   10684 H6        -358.1026  -296.5435   380.3354 H6            1 RES     
   10685 H6        -356.8488  -295.2614   380.1352 H6            1 RES     
   10686 H6        -359.7037  -294.9883   381.2381 H6            1 RES     
   10687 H6        -358.7249  -293.5815   380.7898 H6            1 RES     
   10688 H6        -358.7038  -293.9387   383.0709 H6            1 RES     
   10689 H6        -357.6486  -296.7039   382.9869 H6            1 RES     
   10690 H6        -357.4411  -295.6265   384.4242 H6            1 RES     
   10691 H6        -359.7312  -295.0581   384.5418 H6            1 RES     
   10692 H6        -360.1220  -296.0869   383.0623 H6            1 RES     
   10693 H6        -359.5878  -296.9568   385.9418 H6            1 RES     
   10694 H6        -359.9548  -298.0612   384.5463 H6            1 RES     
   10695 H6        -361.7396  -295.6325   385.3927 H6            1 RES     
   10696 H6        -362.0488  -296.7742   384.0460 H6            1 RES     
   10697 H6        -362.3827  -298.6272   385.6875 H6            1 RES     
   10698 H6        -363.5368  -297.2496   385.8027 H6            1 RES     
   10699 H6        -362.3327  -296.2824   387.7244 H6            1 RES     
   10700 H6        -361.1610  -297.6675   387.7035 H6            1 RES     
   10701 H6        -362.9133  -297.9542   388.0466 H6            1 RES     
   10702 H6        -356.8635  -292.8538   381.7722 H6            1 RES     
   10703 H6        -355.9388  -294.1627   382.5609 H6            1 RES     
   10704 H6        -354.7935  -292.7398   383.6364 H6            1 RES     
   10705 H6        -355.2327  -291.0829   383.8163 H6            1 RES     
   10706 H6        -355.4078  -293.2318   386.0596 H6            1 RES     
   10707 H6        -356.3590  -290.9962   386.5868 H6            1 RES     
   10708 H6        -355.1107  -291.5754   387.7274 H6            1 RES     
   10709 H6        -353.3987  -290.0536   386.8584 H6            1 RES     
   10710 H6        -354.4373  -289.5746   385.5030 H6            1 RES     
   10711 H6        -354.5307  -287.7807   387.0574 H6            1 RES     
   10712 H6        -356.1054  -288.5932   387.1422 H6            1 RES     
   10713 H6        -355.4191  -289.7609   389.2519 H6            1 RES     
   10714 H6        -355.4027  -287.9729   389.3658 H6            1 RES     
   10715 H6        -352.9057  -289.7704   389.0506 H6            1 RES     
   10716 H6        -353.4761  -288.9356   390.5304 H6            1 RES     
   10717 H6        -353.1616  -286.7046   389.4111 H6            1 RES     
   10718 H6        -351.6361  -287.6639   389.5068 H6            1 RES     
   10719 H6        -352.5040  -287.5446   387.9472 H6            1 RES     
   10720 H6        -353.2558  -293.7185   385.3390 H6            1 RES     
   10721 H6        -353.0310  -292.6786   386.7738 H6            1 RES     
   10722 H6        -352.5604  -290.7441   385.0187 H6            1 RES     
   10723 H6        -352.6356  -291.9879   383.7627 H6            1 RES     
   10724 H6        -350.3697  -291.3541   384.4352 H6            1 RES     
   10725 H6        -350.6689  -291.8157   386.1458 H6            1 RES     
   10726 H6        -350.6781  -293.7766   383.7408 H6            1 RES     
   10727 H6        -350.9412  -294.1968   385.4734 H6            1 RES     
   10728 H6        -348.6306  -293.3865   386.0375 H6            1 RES     
   10729 H6        -348.6729  -294.7555   384.8704 H6            1 RES     
   10730 H6        -348.2537  -291.7945   384.1031 H6            1 RES     
   10731 H6        -348.2981  -293.1803   382.9555 H6            1 RES     
   10732 H6        -346.0043  -292.3704   383.4758 H6            1 RES     
   10733 H6        -346.2438  -292.7048   385.2269 H6            1 RES     
   10734 H6        -346.4378  -295.1643   384.7088 H6            1 RES     
   10735 H6        -344.9042  -294.4720   384.0862 H6            1 RES     
   10736 H6        -346.2596  -294.7948   382.9424 H6            1 RES     
   10737 C0        -367.0669  -299.5281   379.2653 C0            1 RES     
   10738 C0        -368.5021  -299.2193   378.6756 C0            1 RES     
   10739 C0        -368.5944  -297.9284   378.2772 C0            1 RES     
   10740 S1        -370.0760  -297.5239   377.6004 S1            1 RES     
   10741 C0        -370.7053  -299.0907   377.7911 C0            1 RES     
   10742 C0        -369.7497  -299.8654   378.4643 C0            1 RES     
   10743 C0        -367.4072  -297.2388   378.6224 C0            1 RES     
   10744 C0        -366.5692  -298.0808   379.1832 C0            1 RES     
   10745 C0        -365.4396  -297.3884   379.7370 C0            1 RES     
   10746 C0        -365.5374  -296.0216   379.5494 C0            1 RES     
   10747 S1        -366.9858  -295.5058   378.6108 S1            1 RES     
   10748 H2        -369.9669  -300.8663   378.7343 H2            1 RES     
   10749 H2        -364.7085  -297.8480   380.3325 H2            1 RES     
   10750 N3        -373.4285  -301.4938   376.6725 N3            1 RES     
   10751 C0        -372.2927  -300.9940   377.2355 C0            1 RES     
   10752 C0        -372.0121  -299.6017   377.2445 C0            1 RES     
   10753 C0        -372.9822  -298.7662   376.6501 C0            1 RES     
   10754 N3        -372.8920  -297.4131   376.5697 N3            1 RES     
   10755 S1        -374.2889  -297.0054   375.7898 S1            1 RES     
   10756 N3        -375.0330  -298.4518   375.5220 N3            1 RES     
   10757 C0        -374.1574  -299.3325   376.0746 C0            1 RES     
   10758 C0        -374.3621  -300.7012   376.0914 C0            1 RES     
   10759 H4        -371.6023  -301.7027   377.6435 H4            1 RES     
   10760 C5        -372.9650  -299.9217   370.0496 C5            1 RES     
   10761 C5        -372.8647  -299.1590   371.3705 C5            1 RES     
   10762 C5        -372.3095  -300.0147   372.5218 C5            1 RES     
   10763 C5        -370.8431  -300.4376   372.3173 C5            1 RES     
   10764 C5        -370.3353  -301.2518   373.5170 C5            1 RES     
   10765 C5        -368.8257  -301.5543   373.3934 C5            1 RES     
   10766 C5        -368.2132  -302.3275   374.5915 C5            1 RES     
   10767 C5        -368.5729  -301.6498   375.9148 C5            1 RES     
   10768 C5        -367.7374  -302.0155   377.1674 C5            1 RES     
   10769 C5        -367.8933  -303.4481   377.8091 C5            1 RES     
   10770 C5        -369.2818  -303.4704   378.5064 C5            1 RES     
   10771 C5        -369.9071  -304.6015   379.3314 C5            1 RES     
   10772 C5        -371.2858  -304.0308   379.8012 C5            1 RES     
   10773 C5        -372.1777  -304.9238   380.6618 C5            1 RES     
   10774 C5        -371.6374  -305.1282   382.0717 C5            1 RES     
   10775 C5        -366.3878  -301.2838   377.2021 C5            1 RES     
   10776 C0        -366.0591  -300.6666   378.6230 C0            1 RES     
   10777 C5        -364.4832  -300.5098   378.7596 C5            1 RES     
   10778 C5        -363.7822  -301.1706   379.9977 C5            1 RES     
   10779 C5        -363.7506  -300.2760   381.2705 C5            1 RES     
   10780 C5        -362.6995  -299.1408   381.2518 C5            1 RES     
   10781 C5        -362.8854  -298.1144   382.3865 C5            1 RES     
   10782 C5        -362.5549  -298.6255   383.7976 C5            1 RES     
   10783 C5        -361.0817  -299.0254   384.0087 C5            1 RES     
   10784 C5        -360.1015  -297.8769   383.7499 C5            1 RES     
   10785 C5        -362.3726  -301.7944   379.6599 C5            1 RES     
   10786 C5        -361.3989  -300.9306   378.8114 C5            1 RES     
   10787 C5        -359.9625  -301.4919   378.7134 C5            1 RES     
   10788 C5        -359.8422  -302.8724   378.0377 C5            1 RES     
   10789 C5        -358.3773  -303.3582   377.9121 C5            1 RES     
   10790 C5        -357.5243  -302.5076   376.9453 C5            1 RES     
   10791 C5        -356.0616  -302.9758   376.8228 C5            1 RES     
   10792 C5        -355.9057  -304.3685   376.2122 C5            1 RES     
   10793 H6        -371.9644  -300.2315   369.6867 H6            1 RES     
   10794 H6        -373.4202  -299.2657   369.2780 H6            1 RES     
   10795 H6        -373.6073  -300.8193   370.1747 H6            1 RES     
   10796 H6        -372.2367  -298.2518   371.2321 H6            1 RES     
   10797 H6        -373.8890  -298.8279   371.6493 H6            1 RES     
   10798 H6        -372.3690  -299.4022   373.4494 H6            1 RES     
   10799 H6        -372.9520  -300.9111   372.6590 H6            1 RES     
   10800 H6        -370.2281  -299.5159   372.2110 H6            1 RES     
   10801 H6        -370.7311  -301.0512   371.4001 H6            1 RES     
   10802 H6        -370.5128  -300.6354   374.4240 H6            1 RES     
   10803 H6        -370.9105  -302.1981   373.6054 H6            1 RES     
   10804 H6        -368.6240  -302.1217   372.4595 H6            1 RES     
   10805 H6        -368.2984  -300.5767   373.3173 H6            1 RES     
   10806 H6        -368.5665  -303.3806   374.6182 H6            1 RES     
   10807 H6        -367.1113  -302.3276   374.4463 H6            1 RES     
   10808 H6        -369.6470  -301.8288   376.1086 H6            1 RES     
   10809 H6        -368.4673  -300.5496   375.7768 H6            1 RES     
   10810 H6        -368.1863  -301.4365   377.8900 H6            1 RES     
   10811 H6        -367.7707  -304.2433   377.0441 H6            1 RES     
   10812 H6        -367.1278  -303.5916   378.6034 H6            1 RES     
   10813 H6        -369.2005  -302.6755   379.2715 H6            1 RES     
   10814 H6        -370.0162  -303.2386   377.7167 H6            1 RES     
   10815 H6        -369.2609  -304.8473   380.2017 H6            1 RES     
   10816 H6        -370.0575  -305.5067   378.7075 H6            1 RES     
   10817 H6        -371.1370  -303.0747   380.3569 H6            1 RES     
   10818 H6        -371.8784  -303.7916   378.8909 H6            1 RES     
   10819 H6        -372.3544  -305.8935   380.1539 H6            1 RES     
   10820 H6        -373.1575  -304.4025   380.7662 H6            1 RES     
   10821 H6        -371.5042  -304.1458   382.5771 H6            1 RES     
   10822 H6        -370.6718  -305.6694   382.0503 H6            1 RES     
   10823 H6        -372.3745  -305.7180   382.6575 H6            1 RES     
   10824 H6        -366.3692  -300.4136   376.5108 H6            1 RES     
   10825 H6        -365.6395  -302.0135   376.8242 H6            1 RES     
   10826 H6        -364.0706  -301.1100   377.9266 H6            1 RES     
   10827 H6        -364.1140  -299.4927   378.5209 H6            1 RES     
   10828 H6        -364.4110  -302.0481   380.2708 H6            1 RES     
   10829 H6        -364.7739  -299.8708   381.4145 H6            1 RES     
   10830 H6        -363.5238  -300.9137   382.1522 H6            1 RES     
   10831 H6        -361.6737  -299.5530   381.2991 H6            1 RES     
   10832 H6        -362.7745  -298.5915   380.2946 H6            1 RES     
   10833 H6        -362.2518  -297.2304   382.1699 H6            1 RES     
   10834 H6        -363.9335  -297.7511   382.3882 H6            1 RES     
   10835 H6        -363.2087  -299.4882   384.0443 H6            1 RES     
   10836 H6        -362.7939  -297.8097   384.5144 H6            1 RES     
   10837 H6        -360.8134  -299.8896   383.3668 H6            1 RES     
   10838 H6        -360.9672  -299.3436   385.0669 H6            1 RES     
   10839 H6        -360.3521  -297.0011   384.3860 H6            1 RES     
   10840 H6        -359.0698  -298.2076   383.9899 H6            1 RES     
   10841 H6        -360.1127  -297.5711   382.6834 H6            1 RES     
   10842 H6        -362.5433  -302.7188   379.0670 H6            1 RES     
   10843 H6        -361.8921  -302.1054   380.6130 H6            1 RES     
   10844 H6        -361.2835  -299.9226   379.2314 H6            1 RES     
   10845 H6        -361.8074  -300.7995   377.7868 H6            1 RES     
   10846 H6        -359.3845  -300.7504   378.1267 H6            1 RES     
   10847 H6        -359.5195  -301.5453   379.7325 H6            1 RES     
   10848 H6        -360.3026  -302.8460   377.0262 H6            1 RES     
   10849 H6        -360.3905  -303.6130   378.6545 H6            1 RES     
   10850 H6        -357.9028  -303.3774   378.9177 H6            1 RES     
   10851 H6        -358.4086  -304.4008   377.5266 H6            1 RES     
   10852 H6        -357.4843  -301.4628   377.3122 H6            1 RES     
   10853 H6        -357.9929  -302.5065   375.9369 H6            1 RES     
   10854 H6        -355.5279  -302.2580   376.1611 H6            1 RES     
   10855 H6        -355.5720  -302.9515   377.8201 H6            1 RES     
   10856 H6        -356.3614  -305.1444   376.8594 H6            1 RES     
   10857 H6        -354.8246  -304.6036   376.1083 H6            1 RES     
   10858 H6        -356.3713  -304.4029   375.2045 H6            1 RES     
   10859 C0        -378.0189  -304.4084   374.7035 C0            1 RES     
   10860 C0        -379.4259  -303.7220   374.4755 C0            1 RES     
   10861 C0        -379.2981  -302.3778   374.3735 C0            1 RES     
   10862 S1        -380.7423  -301.5710   374.0903 S1            1 RES     
   10863 C0        -381.6566  -303.0032   374.0754 C0            1 RES     
   10864 C0        -380.8000  -304.0706   374.3806 C0            1 RES     
   10865 C0        -377.9533  -302.0088   374.6175 C0            1 RES     
   10866 C0        -377.2411  -303.0932   374.8238 C0            1 RES     
   10867 C0        -375.9205  -302.7610   375.2796 C0            1 RES     
   10868 C0        -375.7506  -301.3934   375.3964 C0            1 RES     
   10869 S1        -377.1776  -300.4240   374.8783 S1            1 RES     
   10870 H2        -381.1837  -305.0531   374.4777 H2            1 RES     
   10871 H2        -375.2248  -303.4696   375.6175 H2            1 RES     
   10872 N3        -384.9651  -304.5567   373.0348 N3            1 RES     
   10873 C0        -383.6784  -304.4118   373.4591 C0            1 RES     
   10874 C0        -383.1085  -303.1328   373.6973 C0            1 RES     
   10875 C0        -383.9546  -302.0234   373.4828 C0            1 RES     
   10876 N3        -383.5902  -300.7273   373.6637 N3            1 RES     
   10877 S1        -384.9672  -299.9078   373.2660 S1            1 RES     
   10878 N3        -386.0344  -301.0959   372.8573 N3            1 RES     
   10879 C0        -385.2954  -302.2220   373.0406 C0            1 RES     
   10880 C0        -385.7831  -303.4978   372.8174 C0            1 RES     
   10881 H4        -383.1028  -305.3068   373.5741 H4            1 RES     
   10882 C5        -385.1598  -301.5625   366.9073 C5            1 RES     
   10883 C5        -384.7048  -301.1651   368.3115 C5            1 RES     
   10884 C5        -384.1815  -302.3534   369.1361 C5            1 RES     
   10885 C5        -382.8861  -302.9656   368.5723 C5            1 RES     
   10886 C5        -382.3924  -304.1175   369.4610 C5            1 RES     
   10887 C5        -381.0176  -304.6415   368.9910 C5            1 RES     
   10888 C5        -380.4144  -305.7722   369.8664 C5            1 RES     
   10889 C5        -380.4215  -305.3760   371.3439 C5            1 RES     
   10890 C5        -379.5078  -306.1693   372.3117 C5            1 RES     
   10891 C5        -379.8697  -307.6632   372.6662 C5            1 RES     
   10892 C5        -381.1123  -307.6070   373.5975 C5            1 RES     
   10893 C5        -381.8360  -308.7742   374.2793 C5            1 RES     
   10894 C5        -382.9760  -308.0991   375.1111 C5            1 RES     
   10895 C5        -383.9010  -309.0006   375.9268 C5            1 RES     
   10896 C5        -383.2147  -309.6254   377.1351 C5            1 RES     
   10897 C5        -378.0430  -305.7148   372.2349 C5            1 RES     
   10898 C0        -377.3839  -305.5202   373.6617 C0            1 RES     
   10899 C5        -375.8084  -305.6787   373.5224 C5            1 RES     
   10900 C5        -375.0898  -306.7269   374.4420 C5            1 RES     
   10901 C5        -374.6801  -306.1801   375.8400 C5            1 RES     
   10902 C5        -373.4253  -305.2751   375.8514 C5            1 RES     
   10903 C5        -373.2178  -304.5313   377.1854 C5            1 RES     
   10904 C5        -372.7995  -305.4128   378.3727 C5            1 RES     
   10905 C5        -371.4312  -306.1030   378.2113 C5            1 RES     
   10906 C5        -370.2774  -305.1158   378.0085 C5            1 RES     
   10907 C5        -373.9117  -307.4895   373.7203 C5            1 RES     
   10908 C5        -372.9122  -306.6332   372.8946 C5            1 RES     
   10909 C5        -371.6596  -307.3977   372.4106 C5            1 RES     
   10910 C5        -371.9383  -308.5772   371.4579 C5            1 RES     
   10911 C5        -370.6460  -309.2681   370.9573 C5            1 RES     
   10912 C5        -369.7833  -308.3750   370.0385 C5            1 RES     
   10913 C5        -368.4889  -309.0494   369.5450 C5            1 RES     
   10914 C5        -368.7262  -310.2624   368.6454 C5            1 RES     
   10915 H6        -384.3133  -301.9476   366.3039 H6            1 RES     
   10916 H6        -385.5731  -300.6727   366.3874 H6            1 RES     
   10917 H6        -385.9534  -302.3373   366.9680 H6            1 RES     
   10918 H6        -383.9249  -300.3754   368.2428 H6            1 RES     
   10919 H6        -385.5821  -300.7357   368.8431 H6            1 RES     
   10920 H6        -383.9711  -301.9781   370.1628 H6            1 RES     
   10921 H6        -384.9733  -303.1300   369.2087 H6            1 RES     
   10922 H6        -382.1109  -302.1674   368.5398 H6            1 RES     
   10923 H6        -383.0445  -303.3536   367.5454 H6            1 RES     
   10924 H6        -382.2982  -303.7129   370.4913 H6            1 RES     
   10925 H6        -383.1371  -304.9420   369.4636 H6            1 RES     
   10926 H6        -381.0820  -304.9971   367.9403 H6            1 RES     
   10927 H6        -380.3107  -303.7818   369.0158 H6            1 RES     
   10928 H6        -380.9766  -306.7229   369.7455 H6            1 RES     
   10929 H6        -379.3718  -305.9307   369.5156 H6            1 RES     
   10930 H6        -381.4683  -305.4050   371.6997 H6            1 RES     
   10931 H6        -380.1048  -304.3104   371.4150 H6            1 RES     
   10932 H6        -379.7108  -305.7091   373.2094 H6            1 RES     
   10933 H6        -380.0343  -308.2627   371.7463 H6            1 RES     
   10934 H6        -379.0438  -308.1231   373.2527 H6            1 RES     
   10935 H6        -380.7509  -307.0435   374.4783 H6            1 RES     
   10936 H6        -381.8886  -307.0693   373.0274 H6            1 RES     
   10937 H6        -381.1360  -309.3289   374.9409 H6            1 RES     
   10938 H6        -382.2668  -309.4646   373.5249 H6            1 RES     
   10939 H6        -382.5459  -307.3437   375.8106 H6            1 RES     
   10940 H6        -383.6316  -307.5506   374.3996 H6            1 RES     
   10941 H6        -384.3539  -309.7755   375.2756 H6            1 RES     
   10942 H6        -384.7203  -308.3558   376.3211 H6            1 RES     
   10943 H6        -382.8015  -308.8301   377.7947 H6            1 RES     
   10944 H6        -382.4011  -310.3065   376.8191 H6            1 RES     
   10945 H6        -383.9660  -310.1990   377.7189 H6            1 RES     
   10946 H6        -377.9412  -304.7223   371.7448 H6            1 RES     
   10947 H6        -377.5321  -306.4532   371.5801 H6            1 RES     
   10948 H6        -375.6612  -306.1266   372.5213 H6            1 RES     
   10949 H6        -375.2698  -304.7148   373.4293 H6            1 RES     
   10950 H6        -375.8442  -307.5201   374.6463 H6            1 RES     
   10951 H6        -375.5604  -305.6479   376.2572 H6            1 RES     
   10952 H6        -374.4671  -307.0385   376.5132 H6            1 RES     
   10953 H6        -372.5158  -305.8598   375.6161 H6            1 RES     
   10954 H6        -373.5217  -304.5097   375.0586 H6            1 RES     
   10955 H6        -372.4490  -303.7462   377.0359 H6            1 RES     
   10956 H6        -374.1521  -304.0011   377.4621 H6            1 RES     
   10957 H6        -373.5787  -306.1811   378.5595 H6            1 RES     
   10958 H6        -372.7501  -304.7617   379.2729 H6            1 RES     
   10959 H6        -371.4515  -306.8231   377.3677 H6            1 RES     
   10960 H6        -371.2323  -306.6784   379.1406 H6            1 RES     
   10961 H6        -370.2382  -304.3862   378.8456 H6            1 RES     
   10962 H6        -369.3163  -305.6694   377.9737 H6            1 RES     
   10963 H6        -370.3804  -304.5683   377.0490 H6            1 RES     
   10964 H6        -374.3617  -308.2020   372.9956 H6            1 RES     
   10965 H6        -373.3735  -308.0972   374.4799 H6            1 RES     
   10966 H6        -372.5233  -305.7900   373.4809 H6            1 RES     
   10967 H6        -373.4301  -306.1929   372.0160 H6            1 RES     
   10968 H6        -371.0296  -306.6511   371.8874 H6            1 RES     
   10969 H6        -371.0927  -307.7684   373.2932 H6            1 RES     
   10970 H6        -372.5266  -308.2311   370.5805 H6            1 RES     
   10971 H6        -372.5349  -309.3354   372.0046 H6            1 RES     
   10972 H6        -370.0433  -309.6084   371.8278 H6            1 RES     
   10973 H6        -370.9560  -310.1672   370.3810 H6            1 RES     
   10974 H6        -369.4672  -307.4710   370.5957 H6            1 RES     
   10975 H6        -370.3845  -308.0524   369.1606 H6            1 RES     
   10976 H6        -367.9179  -308.2999   368.9534 H6            1 RES     
   10977 H6        -367.8637  -309.3489   370.4135 H6            1 RES     
   10978 H6        -369.2365  -311.0776   369.1963 H6            1 RES     
   10979 H6        -367.7478  -310.6516   368.2903 H6            1 RES     
   10980 H6        -369.3321  -309.9744   367.7603 H6            1 RES     
   10981 C0        -390.3116  -306.0700   371.4320 C0            1 RES     
   10982 C0        -391.5573  -305.1136   371.6229 C0            1 RES     
   10983 C0        -391.1617  -303.8274   371.7740 C0            1 RES     
   10984 S1        -392.4257  -302.7364   371.9434 S1            1 RES     
   10985 C0        -393.6169  -303.9411   371.8130 C0            1 RES     
   10986 C0        -392.9727  -305.1835   371.7245 C0            1 RES     
   10987 C0        -389.7481  -303.7683   371.8253 C0            1 RES     
   10988 C0        -389.2617  -304.9781   371.6659 C0            1 RES     
   10989 C0        -387.8481  -305.0002   371.9178 C0            1 RES     
   10990 C0        -387.3745  -303.7511   372.2757 C0            1 RES     
   10991 S1        -388.6219  -302.4518   372.2493 S1            1 RES     
   10992 H2        -393.5389  -306.0781   371.6914 H2            1 RES     
   10993 H2        -387.2778  -305.8794   371.9645 H2            1 RES     
   10994 N3        -397.2975  -304.5989   371.1326 N3            1 RES     
   10995 C0        -395.9613  -304.7866   371.3226 C0            1 RES     
   10996 C0        -395.1025  -303.7209   371.7022 C0            1 RES     
   10997 C0        -395.7141  -302.4618   371.8845 C0            1 RES     
   10998 N3        -395.0585  -301.3302   372.2520 N3            1 RES     
   10999 S1        -396.2719  -300.2116   372.3012 S1            1 RES     
   11000 N3        -397.6168  -301.0628   371.8718 N3            1 RES     
   11001 C0        -397.1167  -302.3117   371.6768 C0            1 RES     
   11002 C0        -397.8933  -303.3923   371.2964 C0            1 RES     
   11003 H4        -395.5798  -305.7698   371.1404 H4            1 RES     
   11004 C5        -397.7506  -300.2484   365.8965 C5            1 RES     
   11005 C5        -397.0190  -300.2819   367.2383 C5            1 RES     
   11006 C5        -396.6458  -301.7048   367.6877 C5            1 RES     
   11007 C5        -395.6089  -302.3827   366.7732 C5            1 RES     
   11008 C5        -395.2471  -303.7808   367.2973 C5            1 RES     
   11009 C5        -394.1009  -304.4106   366.4756 C5            1 RES     
   11010 C5        -393.6307  -305.8044   366.9701 C5            1 RES     
   11011 C5        -393.3347  -305.7757   368.4706 C5            1 RES     
   11012 C5        -392.4789  -306.9235   369.0631 C5            1 RES     
   11013 C5        -393.0953  -308.3717   369.1687 C5            1 RES     
   11014 C5        -394.1457  -308.3217   370.3128 C5            1 RES     
   11015 C5        -394.9932  -309.4721   370.8687 C5            1 RES     
   11016 C5        -395.8270  -308.8251   372.0234 C5            1 RES     
   11017 C5        -396.7925  -309.7182   372.8005 C5            1 RES     
   11018 C5        -396.0847  -310.7224   373.7017 C5            1 RES     
   11019 C5        -390.9787  -306.7275   368.8008 C5            1 RES     
   11020 C0        -390.0898  -306.9959   370.0837 C0            1 RES     
   11021 C5        -388.6229  -307.3902   369.6154 C5            1 RES     
   11022 C5        -388.0172  -308.7360   370.1470 C5            1 RES     
   11023 C5        -387.2982  -308.6173   371.5219 C5            1 RES     
   11024 C5        -385.8914  -307.9750   371.4763 C5            1 RES     
   11025 C5        -385.3351  -307.6177   372.8686 C5            1 RES     
   11026 C5        -384.9441  -308.8152   373.7488 C5            1 RES     
   11027 C5        -383.7941  -309.6759   373.1908 C5            1 RES     
   11028 C5        -382.4989  -308.8865   372.9757 C5            1 RES     
   11029 C5        -387.1491  -309.4994   369.0729 C5            1 RES     
   11030 C5        -386.1228  -308.6601   368.2627 C5            1 RES     
   11031 C5        -385.1480  -309.4950   367.4020 C5            1 RES     
   11032 C5        -385.8100  -310.3469   366.3007 C5            1 RES     
   11033 C5        -384.7836  -311.1143   365.4315 C5            1 RES     
   11034 C5        -383.8954  -310.1938   364.5656 C5            1 RES     
   11035 C5        -382.8625  -310.9476   363.7062 C5            1 RES     
   11036 C5        -383.4837  -311.8513   362.6412 C5            1 RES     
   11037 H6        -397.1047  -300.6211   365.0764 H6            1 RES     
   11038 H6        -398.0364  -299.2023   365.6578 H6            1 RES     
   11039 H6        -398.6737  -300.8642   365.9494 H6            1 RES     
   11040 H6        -396.1073  -299.6476   367.1833 H6            1 RES     
   11041 H6        -397.6958  -299.8443   368.0044 H6            1 RES     
   11042 H6        -396.2108  -301.6270   368.7094 H6            1 RES     
   11043 H6        -397.5656  -302.3254   367.7512 H6            1 RES     
   11044 H6        -394.6946  -301.7480   366.7557 H6            1 RES     
   11045 H6        -395.9965  -302.4817   365.7387 H6            1 RES     
   11046 H6        -394.9175  -303.6555   368.3507 H6            1 RES     
   11047 H6        -396.1420  -304.4388   367.2749 H6            1 RES     
   11048 H6        -394.3943  -304.4895   365.4068 H6            1 RES     
   11049 H6        -393.2309  -303.7188   366.5387 H6            1 RES     
   11050 H6        -394.3947  -306.5856   366.7685 H6            1 RES     
   11051 H6        -392.7096  -306.0552   366.4010 H6            1 RES     
   11052 H6        -394.2992  -305.7046   369.0072 H6            1 RES     
   11053 H6        -392.7907  -304.8299   368.6950 H6            1 RES     
   11054 H6        -392.4441  -306.6615   370.0576 H6            1 RES     
   11055 H6        -393.5182  -308.6972   368.1951 H6            1 RES     
   11056 H6        -392.3095  -309.0950   369.4797 H6            1 RES     
   11057 H6        -393.5462  -308.0558   371.2037 H6            1 RES     
   11058 H6        -394.8646  -307.5366   370.0238 H6            1 RES     
   11059 H6        -394.3381  -310.2819   371.2566 H6            1 RES     
   11060 H6        -395.6683  -309.8771   370.0865 H6            1 RES     
   11061 H6        -395.1469  -308.3448   372.7662 H6            1 RES     
   11062 H6        -396.4480  -308.0171   371.5777 H6            1 RES     
   11063 H6        -397.4916  -310.2246   372.1045 H6            1 RES     
   11064 H6        -397.3876  -309.0523   373.4676 H6            1 RES     
   11065 H6        -395.4183  -310.1916   374.4175 H6            1 RES     
   11066 H6        -395.4913  -311.4405   373.1036 H6            1 RES     
   11067 H6        -396.8466  -311.2776   374.2897 H6            1 RES     
   11068 H6        -390.7407  -305.6806   368.5127 H6            1 RES     
   11069 H6        -390.7399  -307.3669   367.9237 H6            1 RES     
   11070 H6        -388.7243  -307.6060   368.5349 H6            1 RES     
   11071 H6        -387.9106  -306.5414   369.6188 H6            1 RES     
   11072 H6        -388.8849  -309.4103   370.3265 H6            1 RES     
   11073 H6        -387.9729  -308.0538   372.1996 H6            1 RES     
   11074 H6        -387.1765  -309.6347   371.9526 H6            1 RES     
   11075 H6        -385.1728  -308.6371   370.9568 H6            1 RES     
   11076 H6        -385.9380  -307.0386   370.8894 H6            1 RES     
   11077 H6        -384.4470  -306.9666   372.7373 H6            1 RES     
   11078 H6        -386.0831  -307.0132   373.4214 H6            1 RES     
   11079 H6        -385.8332  -309.4572   373.9213 H6            1 RES     
   11080 H6        -384.6243  -308.4156   374.7361 H6            1 RES     
   11081 H6        -384.0922  -310.1600   372.2382 H6            1 RES     
   11082 H6        -383.5877  -310.4813   373.9277 H6            1 RES     
   11083 H6        -382.1815  -308.3952   373.9203 H6            1 RES     
   11084 H6        -381.6942  -309.5755   372.6451 H6            1 RES     
   11085 H6        -382.6231  -308.1174   372.1856 H6            1 RES     
   11086 H6        -387.8429  -309.9293   368.3185 H6            1 RES     
   11087 H6        -386.6470  -310.3548   369.5752 H6            1 RES     
   11088 H6        -385.4805  -308.0619   368.9225 H6            1 RES     
   11089 H6        -386.6586  -307.9401   367.6081 H6            1 RES     
   11090 H6        -384.4575  -308.7677   366.9307 H6            1 RES     
   11091 H6        -384.5495  -310.1581   368.0651 H6            1 RES     
   11092 H6        -386.4337  -309.7047   365.6416 H6            1 RES     
   11093 H6        -386.4674  -311.0967   366.7857 H6            1 RES     
   11094 H6        -384.1458  -311.7518   366.0824 H6            1 RES     
   11095 H6        -385.3602  -311.7822   364.7547 H6            1 RES     
   11096 H6        -383.3147  -309.5178   365.2240 H6            1 RES     
   11097 H6        -384.5367  -309.5718   363.9038 H6            1 RES     
   11098 H6        -382.2383  -310.1909   363.1812 H6            1 RES     
   11099 H6        -382.1944  -311.5495   364.3591 H6            1 RES     
   11100 H6        -384.0693  -312.6718   363.1021 H6            1 RES     
   11101 H6        -382.6745  -312.3102   362.0333 H6            1 RES     
   11102 H6        -384.1380  -311.2598   361.9662 H6            1 RES     
   11103 C0        -403.0206  -304.7278   370.3118 C0            1 RES     
   11104 C0        -403.9909  -303.6412   370.9287 C0            1 RES     
   11105 C0        -403.3117  -302.5175   371.2596 C0            1 RES     
   11106 S1        -404.2742  -301.2940   371.8869 S1            1 RES     
   11107 C0        -405.7012  -302.2055   371.7451 C0            1 RES     
   11108 C0        -405.3577  -303.4843   371.2836 C0            1 RES     
   11109 C0        -401.9265  -302.7207   371.0497 C0            1 RES     
   11110 C0        -401.7388  -303.9240   370.5571 C0            1 RES     
   11111 C0        -400.3413  -304.2525   370.5232 C0            1 RES     
   11112 C0        -399.5641  -303.2269   371.0302 C0            1 RES     
   11113 S1        -400.4950  -301.7608   371.5087 S1            1 RES     
   11114 H2        -406.1004  -304.2321   371.1784 H2            1 RES     
   11115 H2        -399.9715  -305.2034   370.2797 H2            1 RES     
   11116 N3        -409.4965  -302.0278   371.6643 N3            1 RES     
   11117 C0        -408.2182  -302.4863   371.5521 C0            1 RES     
   11118 C0        -407.1051  -301.7086   371.9686 C0            1 RES     
   11119 C0        -407.3997  -300.4418   372.5173 C0            1 RES     
   11120 N3        -406.4705  -299.5627   372.9746 N3            1 RES     
   11121 S1        -407.3959  -298.2931   373.4824 S1            1 RES     
   11122 N3        -408.9399  -298.7690   373.1549 N3            1 RES     
   11123 C0        -408.7528  -300.0035   372.6175 C0            1 RES     
   11124 C0        -409.7898  -300.8096   372.1814 C0            1 RES     
   11125 H4        -408.0868  -303.4492   371.1038 H4            1 RES     
   11126 C5        -409.7777  -296.5479   367.6096 C5            1 RES     
   11127 C5        -408.8802  -297.0267   368.7506 C5            1 RES     
   11128 C5        -408.7575  -298.5584   368.8208 C5            1 RES     
   11129 C5        -408.0362  -299.1704   367.6059 C5            1 RES     
   11130 C5        -407.9082  -300.6941   367.7551 C5            1 RES     
   11131 C5        -407.0572  -301.3014   366.6181 C5            1 RES     
   11132 C5        -406.8280  -302.8330   366.7190 C5            1 RES     
   11133 C5        -406.3144  -303.2138   368.1086 C5            1 RES     
   11134 C5        -405.6458  -304.6011   368.2796 C5            1 RES     
   11135 C5        -406.5349  -305.9020   368.2045 C5            1 RES     
   11136 C5        -407.3695  -305.9420   369.5146 C5            1 RES     
   11137 C5        -408.3517  -307.0248   369.9768 C5            1 RES     
   11138 C5        -408.8480  -306.5349   371.3771 C5            1 RES     
   11139 C5        -409.8564  -307.4038   372.1267 C5            1 RES     
   11140 C5        -409.2545  -308.7013   372.6517 C5            1 RES     
   11141 C5        -404.1939  -304.6142   367.7798 C5            1 RES     
   11142 C0        -403.2034  -305.3311   368.7863 C0            1 RES     
   11143 C5        -401.9403  -305.8534   367.9749 C5            1 RES     
   11144 C5        -401.5644  -307.3716   368.0952 C5            1 RES     
   11145 C5        -400.6417  -307.7108   369.3014 C5            1 RES     
   11146 C5        -399.1526  -307.3326   369.1184 C5            1 RES     
   11147 C5        -398.3334  -307.4193   370.4211 C5            1 RES     
   11148 C5        -398.0818  -308.8410   370.9474 C5            1 RES     
   11149 C5        -397.2376  -309.7322   370.0159 C5            1 RES     
   11150 C5        -395.8499  -309.1536   369.7214 C5            1 RES     
   11151 C5        -401.0479  -307.9979   366.7419 C5            1 RES     
   11152 C5        -399.9972  -307.1832   365.9380 C5            1 RES     
   11153 C5        -399.3614  -307.9471   364.7547 C5            1 RES     
   11154 C5        -400.3453  -308.3835   363.6510 C5            1 RES     
   11155 C5        -399.6466  -309.0901   362.4634 C5            1 RES     
   11156 C5        -398.7201  -308.1604   361.6490 C5            1 RES     
   11157 C5        -398.0107  -308.8573   360.4722 C5            1 RES     
   11158 C5        -398.9610  -309.3590   359.3850 C5            1 RES     
   11159 H6        -409.3547  -296.8224   366.6224 H6            1 RES     
   11160 H6        -409.8654  -295.4417   367.6481 H6            1 RES     
   11161 H6        -410.7928  -296.9872   367.7122 H6            1 RES     
   11162 H6        -407.8723  -296.5673   368.6520 H6            1 RES     
   11163 H6        -409.3271  -296.6721   369.7051 H6            1 RES     
   11164 H6        -408.1699  -298.8029   369.7341 H6            1 RES     
   11165 H6        -409.7690  -299.0054   368.9320 H6            1 RES     
   11166 H6        -407.0202  -298.7200   367.5429 H6            1 RES     
   11167 H6        -408.5844  -298.9514   366.6669 H6            1 RES     
   11168 H6        -407.4075  -300.8824   368.7287 H6            1 RES     
   11169 H6        -408.9163  -301.1608   367.7714 H6            1 RES     
   11170 H6        -407.5153  -301.0715   365.6322 H6            1 RES     
   11171 H6        -406.0599  -300.8077   366.6525 H6            1 RES     
   11172 H6        -407.7625  -303.3977   366.5129 H6            1 RES     
   11173 H6        -406.0762  -303.0986   365.9448 H6            1 RES     
   11174 H6        -407.1513  -303.1044   368.8233 H6            1 RES     
   11175 H6        -405.5538  -302.4587   368.4122 H6            1 RES     
   11176 H6        -405.4092  -304.5931   369.2810 H6            1 RES     
   11177 H6        -407.1566  -305.9076   367.2847 H6            1 RES     
   11178 H6        -405.8846  -306.8045   368.2051 H6            1 RES     
   11179 H6        -406.6022  -306.0045   370.3091 H6            1 RES     
   11180 H6        -407.9387  -304.9973   369.5349 H6            1 RES     
   11181 H6        -407.8348  -308.0054   370.0587 H6            1 RES     
   11182 H6        -409.2056  -307.1078   369.2730 H6            1 RES     
   11183 H6        -407.9789  -306.3715   372.0576 H6            1 RES     
   11184 H6        -409.3409  -305.5483   371.2329 H6            1 RES     
   11185 H6        -410.7425  -307.5999   371.4896 H6            1 RES     
   11186 H6        -410.1903  -306.8218   373.0169 H6            1 RES     
   11187 H6        -408.3918  -308.4808   373.3192 H6            1 RES     
   11188 H6        -408.9232  -309.3493   371.8174 H6            1 RES     
   11189 H6        -410.0220  -309.2380   373.2494 H6            1 RES     
   11190 H6        -403.7829  -303.5872   367.6705 H6            1 RES     
   11191 H6        -404.2295  -305.0586   366.7617 H6            1 RES     
   11192 H6        -402.2440  -305.7852   366.9131 H6            1 RES     
   11193 H6        -401.0705  -305.1680   368.0143 H6            1 RES     
   11194 H6        -402.5200  -307.9066   368.2968 H6            1 RES     
   11195 H6        -401.0728  -307.2152   370.1962 H6            1 RES     
   11196 H6        -400.6780  -308.8065   369.4845 H6            1 RES     
   11197 H6        -398.6769  -307.9676   368.3470 H6            1 RES     
   11198 H6        -399.0842  -306.2902   368.7545 H6            1 RES     
   11199 H6        -397.3561  -306.9215   370.2571 H6            1 RES     
   11200 H6        -398.8449  -306.8420   371.2184 H6            1 RES     
   11201 H6        -399.0521  -309.3397   371.1529 H6            1 RES     
   11202 H6        -397.5417  -308.7497   371.9152 H6            1 RES     
   11203 H6        -397.7696  -309.9162   369.0599 H6            1 RES     
   11204 H6        -397.1016  -310.7129   370.5198 H6            1 RES     
   11205 H6        -395.2989  -308.9642   370.6674 H6            1 RES     
   11206 H6        -395.2690  -309.8743   369.1094 H6            1 RES     
   11207 H6        -395.9222  -308.2094   369.1433 H6            1 RES     
   11208 H6        -401.9212  -308.1079   366.0633 H6            1 RES     
   11209 H6        -400.6717  -309.0224   366.9538 H6            1 RES     
   11210 H6        -399.1517  -306.8808   366.5700 H6            1 RES     
   11211 H6        -400.4574  -306.2459   365.5589 H6            1 RES     
   11212 H6        -398.6087  -307.2612   364.3178 H6            1 RES     
   11213 H6        -398.8272  -308.8430   365.1415 H6            1 RES     
   11214 H6        -400.9078  -307.5042   363.2686 H6            1 RES     
   11215 H6        -401.0688  -309.1001   364.0902 H6            1 RES     
   11216 H6        -399.0708  -309.9654   362.8361 H6            1 RES     
   11217 H6        -400.4461  -309.4665   361.7883 H6            1 RES     
   11218 H6        -397.9176  -307.7725   362.3072 H6            1 RES     
   11219 H6        -399.3042  -307.2965   361.2632 H6            1 RES     
   11220 H6        -397.3237  -308.1189   360.0024 H6            1 RES     
   11221 H6        -397.3977  -309.7045   360.8483 H6            1 RES     
   11222 H6        -399.6337  -310.1499   359.7729 H6            1 RES     
   11223 H6        -398.3674  -309.7947   358.5527 H6            1 RES     
   11224 H6        -399.5660  -308.5189   358.9829 H6            1 RES     
   11225 C0        -415.1719  -300.9539   371.9481 C0            1 RES     
   11226 C0        -415.7856  -299.8923   372.9478 C0            1 RES     
   11227 C0        -414.8406  -299.0162   373.3639 C0            1 RES     
   11228 S1        -415.4160  -297.8277   374.3998 S1            1 RES     
   11229 C0        -417.0097  -298.4150   374.3520 C0            1 RES     
   11230 C0        -417.0194  -299.5874   373.5827 C0            1 RES     
   11231 C0        -413.5774  -299.4030   372.8552 C0            1 RES     
   11232 C0        -413.7261  -300.4686   372.1013 C0            1 RES     
   11233 C0        -412.4518  -301.0191   371.7337 C0            1 RES     
   11234 C0        -411.4072  -300.2957   372.2801 C0            1 RES     
   11235 S1        -411.9222  -298.8456   373.2165 S1            1 RES     
   11236 H2        -417.9121  -300.1468   373.4720 H2            1 RES     
   11237 H2        -412.3339  -301.9346   371.2354 H2            1 RES     
   11238 N3        -420.6487  -297.5615   375.0388 N3            1 RES     
   11239 C0        -419.5288  -298.1967   374.5925 C0            1 RES     
   11240 C0        -418.2262  -297.7475   374.9371 C0            1 RES     
   11241 C0        -418.1590  -296.6158   375.7782 C0            1 RES     
   11242 N3        -417.0063  -296.0473   376.2180 N3            1 RES     
   11243 S1        -417.5536  -294.7928   377.1414 S1            1 RES     
   11244 N3        -419.1947  -294.8993   377.0264 N3            1 RES     
   11245 C0        -419.3571  -295.9839   376.2233 C0            1 RES     
   11246 C0        -420.5952  -296.4690   375.8395 C0            1 RES     
   11247 H4        -419.6739  -299.0333   373.9409 H4            1 RES     
   11248 C5        -420.3481  -291.3132   372.3153 C5            1 RES     
   11249 C5        -419.4152  -292.1989   373.1410 C5            1 RES     
   11250 C5        -419.6136  -293.7005   372.8732 C5            1 RES     
   11251 C5        -419.2273  -294.1230   371.4438 C5            1 RES     
   11252 C5        -419.4073  -295.6367   371.2523 C5            1 RES     
   11253 C5        -418.8833  -296.0958   369.8738 C5            1 RES     
   11254 C5        -418.9743  -297.6233   369.6150 C5            1 RES     
   11255 C5        -418.3544  -298.4071   370.7731 C5            1 RES     
   11256 C5        -417.9800  -299.8903   370.5266 C5            1 RES     
   11257 C5        -419.1277  -300.9598   370.3603 C5            1 RES     
   11258 C5        -419.7487  -301.1631   371.7702 C5            1 RES     
   11259 C5        -420.8603  -302.1355   372.1820 C5            1 RES     
   11260 C5        -421.0281  -301.9131   373.7214 C5            1 RES     
   11261 C5        -422.0768  -302.7448   374.4577 C5            1 RES     
   11262 C5        -421.6953  -304.2146   374.5822 C5            1 RES     
   11263 C5        -416.6546  -300.0384   369.7655 C5            1 RES     
   11264 C0        -415.7026  -301.1359   370.3958 C0            1 RES     
   11265 C5        -414.7143  -301.6634   369.2681 C5            1 RES     
   11266 C5        -414.6581  -303.2084   369.0025 C5            1 RES     
   11267 C5        -413.6613  -303.9805   369.9145 C5            1 RES     
   11268 C5        -412.1696  -303.8364   369.5300 C5            1 RES     
   11269 C5        -411.2046  -304.3722   370.6059 C5            1 RES     
   11270 C5        -411.1877  -305.8997   370.7735 C5            1 RES     
   11271 C5        -410.7005  -306.6777   369.5358 C5            1 RES     
   11272 C5        -409.2804  -306.2980   369.1046 C5            1 RES     
   11273 C5        -414.4930  -303.5757   367.4767 C5            1 RES     
   11274 C5        -413.4231  -302.7903   366.6691 C5            1 RES     
   11275 C5        -413.1471  -303.3504   365.2555 C5            1 RES     
   11276 C5        -414.3535  -303.3330   364.2959 C5            1 RES     
   11277 C5        -414.0052  -303.8483   362.8777 C5            1 RES     
   11278 C5        -413.0321  -302.9288   362.1073 C5            1 RES     
   11279 C5        -412.6697  -303.4393   360.6995 C5            1 RES     
   11280 C5        -413.8552  -303.4940   359.7359 C5            1 RES     
   11281 H6        -420.1441  -291.4150   371.2305 H6            1 RES     
   11282 H6        -420.1907  -290.2500   372.5943 H6            1 RES     
   11283 H6        -421.4071  -291.5795   372.5191 H6            1 RES     
   11284 H6        -418.3583  -291.9130   372.9465 H6            1 RES     
   11285 H6        -419.6300  -292.0085   374.2154 H6            1 RES     
   11286 H6        -418.9636  -294.2540   373.5875 H6            1 RES     
   11287 H6        -420.6695  -293.9769   373.0831 H6            1 RES     
   11288 H6        -418.1593  -293.8556   371.2800 H6            1 RES     
   11289 H6        -419.8486  -293.5947   370.6921 H6            1 RES     
   11290 H6        -418.8202  -296.1355   372.0527 H6            1 RES     
   11291 H6        -420.4781  -295.9099   371.3664 H6            1 RES     
   11292 H6        -419.4221  -295.5617   369.0620 H6            1 RES     
   11293 H6        -417.8096  -295.8069   369.8160 H6            1 RES     
   11294 H6        -420.0278  -297.9502   369.4816 H6            1 RES     
   11295 H6        -418.4194  -297.8248   368.6734 H6            1 RES     
   11296 H6        -419.0337  -298.3258   371.6421 H6            1 RES     
   11297 H6        -417.4138  -297.8910   371.0723 H6            1 RES     
   11298 H6        -417.6020  -300.1620   371.4443 H6            1 RES     
   11299 H6        -419.8651  -300.6378   369.5954 H6            1 RES     
   11300 H6        -418.6926  -301.9362   370.0525 H6            1 RES     
   11301 H6        -418.9038  -301.5459   372.3729 H6            1 RES     
   11302 H6        -420.0934  -300.1656   372.0912 H6            1 RES     
   11303 H6        -420.5586  -303.1823   371.9619 H6            1 RES     
   11304 H6        -421.8066  -301.8980   371.6533 H6            1 RES     
   11305 H6        -420.0534  -302.0709   374.2411 H6            1 RES     
   11306 H6        -421.3145  -300.8499   373.8783 H6            1 RES     
   11307 H6        -423.0685  -302.6257   373.9761 H6            1 RES     
   11308 H6        -422.1434  -302.3418   375.4948 H6            1 RES     
   11309 H6        -420.7165  -304.3136   375.1023 H6            1 RES     
   11310 H6        -421.6371  -304.6936   373.5857 H6            1 RES     
   11311 H6        -422.4629  -304.7350   375.1940 H6            1 RES     
   11312 H6        -416.0544  -299.1032   369.7908 H6            1 RES     
   11313 H6        -416.9343  -300.2150   368.7044 H6            1 RES     
   11314 H6        -415.1499  -301.2928   368.3208 H6            1 RES     
   11315 H6        -413.7222  -301.1702   369.2786 H6            1 RES     
   11316 H6        -415.6654  -303.6000   369.2705 H6            1 RES     
   11317 H6        -413.8395  -303.6441   370.9572 H6            1 RES     
   11318 H6        -413.9035  -305.0646   369.8742 H6            1 RES     
   11319 H6        -411.9599  -304.3432   368.5689 H6            1 RES     
   11320 H6        -411.9346  -302.7660   369.3796 H6            1 RES     
   11321 H6        -410.1787  -304.0288   370.3622 H6            1 RES     
   11322 H6        -411.4575  -303.9205   371.5870 H6            1 RES     
   11323 H6        -412.2009  -306.2551   371.0555 H6            1 RES     
   11324 H6        -410.5038  -306.1369   371.6177 H6            1 RES     
   11325 H6        -411.3949  -306.5333   368.6826 H6            1 RES     
   11326 H6        -410.7044  -307.7583   369.7939 H6            1 RES     
   11327 H6        -408.5681  -306.4382   369.9456 H6            1 RES     
   11328 H6        -408.9638  -306.9429   368.2589 H6            1 RES     
   11329 H6        -409.2338  -305.2458   368.7556 H6            1 RES     
   11330 H6        -415.4601  -303.3667   366.9704 H6            1 RES     
   11331 H6        -414.3173  -304.6708   367.3994 H6            1 RES     
   11332 H6        -412.4485  -302.7996   367.1751 H6            1 RES     
   11333 H6        -413.7231  -301.7242   366.5842 H6            1 RES     
   11334 H6        -412.3382  -302.7231   364.8312 H6            1 RES     
   11335 H6        -412.7655  -304.3919   365.3420 H6            1 RES     
   11336 H6        -414.7652  -302.3035   364.2156 H6            1 RES     
   11337 H6        -415.1404  -303.9952   364.7105 H6            1 RES     
   11338 H6        -413.5812  -304.8740   362.9470 H6            1 RES     
   11339 H6        -414.9574  -303.9075   362.3065 H6            1 RES     
   11340 H6        -412.0770  -302.8551   362.6642 H6            1 RES     
   11341 H6        -413.4685  -301.9094   362.0248 H6            1 RES     
   11342 H6        -411.9180  -302.7425   360.2670 H6            1 RES     
   11343 H6        -412.2033  -304.4455   360.7706 H6            1 RES     
   11344 H6        -414.6166  -304.2240   360.0765 H6            1 RES     
   11345 H6        -413.4980  -303.8165   358.7343 H6            1 RES     
   11346 H6        -414.3194  -302.4899   359.6370 H6            1 RES     
   11347 C0        -425.8578  -295.6090   376.6190 C0            1 RES     
   11348 C0        -426.0759  -294.7247   377.9125 C0            1 RES     
   11349 C0        -424.9148  -294.1519   378.3090 C0            1 RES     
   11350 S1        -425.0633  -293.1617   379.6559 S1            1 RES     
   11351 C0        -426.7350  -293.4324   379.7963 C0            1 RES     
   11352 C0        -427.1085  -294.3681   378.8209 C0            1 RES     
   11353 C0        -423.8527  -294.6219   377.4995 C0            1 RES     
   11354 C0        -424.3353  -295.4348   376.5874 C0            1 RES     
   11355 C0        -423.2767  -296.0967   375.8779 C0            1 RES     
   11356 C0        -422.0328  -295.7182   376.3492 C0            1 RES     
   11357 S1        -422.0818  -294.4650   377.6422 S1            1 RES     
   11358 H2        -428.1064  -294.7200   378.7721 H2            1 RES     
   11359 H2        -423.4321  -296.8737   375.1905 H2            1 RES     
   11360 N3        -429.9652  -292.1428   381.3277 N3            1 RES     
   11361 C0        -429.0854  -292.8398   380.5550 C0            1 RES     
   11362 C0        -427.6806  -292.7206   380.7273 C0            1 RES     
   11363 C0        -427.2496  -291.8509   381.7523 C0            1 RES     
   11364 N3        -425.9500  -291.6140   382.0690 N3            1 RES     
   11365 S1        -426.0741  -290.5389   383.3159 S1            1 RES     
   11366 N3        -427.6986  -290.3260   383.4987 N3            1 RES     
   11367 C0        -428.2059  -291.1431   382.5381 C0            1 RES     
   11368 C0        -429.5617  -291.2985   382.3085 C0            1 RES     
   11369 H4        -429.5005  -293.4589   379.7870 H4            1 RES     
   11370 C5        -428.7419  -285.5785   379.9269 C5            1 RES     
   11371 C5        -427.9083  -286.7842   380.3604 C5            1 RES     
   11372 C5        -428.4604  -288.1206   379.8357 C5            1 RES     
   11373 C5        -428.3888  -288.2524   378.3033 C5            1 RES     
   11374 C5        -428.9143  -289.6216   377.8459 C5            1 RES     
   11375 C5        -428.7100  -289.8246   376.3284 C5            1 RES     
   11376 C5        -429.1625  -291.2066   375.7865 C5            1 RES     
   11377 C5        -428.5604  -292.3392   376.6199 C5            1 RES     
   11378 C5        -428.5522  -293.7634   376.0095 C5            1 RES     
   11379 C5        -429.9136  -294.5447   375.8524 C5            1 RES     
   11380 C5        -430.3485  -294.9651   377.2838 C5            1 RES     
   11381 C5        -431.5689  -295.7974   377.6945 C5            1 RES     
   11382 C5        -431.4560  -295.9212   379.2499 C5            1 RES     
   11383 C5        -432.5378  -296.7072   379.9888 C5            1 RES     
   11384 C5        -432.4650  -298.2079   379.7359 C5            1 RES     
   11385 C5        -427.4164  -293.9561   374.9943 C5            1 RES     
   11386 C0        -426.6385  -295.3212   375.1934 C0            1 RES     
   11387 C5        -425.9634  -295.7304   373.8137 C5            1 RES     
   11388 C5        -426.2785  -297.1533   373.2335 C5            1 RES     
   11389 C5        -425.3463  -298.2822   373.7606 C5            1 RES     
   11390 C5        -423.9318  -298.3144   373.1345 C5            1 RES     
   11391 C5        -422.9555  -299.2509   373.8733 C5            1 RES     
   11392 C5        -423.2408  -300.7531   373.7201 C5            1 RES     
   11393 C5        -423.1195  -301.2878   372.2799 C5            1 RES     
   11394 C5        -421.7306  -301.0712   371.6707 C5            1 RES     
   11395 C5        -426.4230  -297.1707   371.6621 C5            1 RES     
   11396 C5        -425.3412  -296.4158   370.8413 C5            1 RES     
   11397 C5        -425.4032  -296.6635   369.3172 C5            1 RES     
   11398 C5        -426.7062  -296.2076   368.6309 C5            1 RES     
   11399 C5        -426.6894  -296.4241   367.0977 C5            1 RES     
   11400 C5        -425.6670  -295.5329   366.3584 C5            1 RES     
   11401 C5        -425.6342  -295.7497   364.8334 C5            1 RES     
   11402 C5        -426.9329  -295.3655   364.1246 C5            1 RES     
   11403 H6        -428.7269  -285.4538   378.8255 H6            1 RES     
   11404 H6        -428.3215  -284.6565   380.3810 H6            1 RES     
   11405 H6        -429.7913  -285.6959   380.2716 H6            1 RES     
   11406 H6        -426.8554  -286.6500   380.0290 H6            1 RES     
   11407 H6        -427.9164  -286.8200   381.4718 H6            1 RES     
   11408 H6        -427.8455  -288.9329   380.2841 H6            1 RES     
   11409 H6        -429.5081  -288.2496   380.1835 H6            1 RES     
   11410 H6        -427.3244  -288.1450   377.9955 H6            1 RES     
   11411 H6        -428.9869  -287.4602   377.8083 H6            1 RES     
   11412 H6        -428.3358  -290.3912   378.4001 H6            1 RES     
   11413 H6        -429.9899  -289.7223   378.1053 H6            1 RES     
   11414 H6        -429.2361  -289.0271   375.7611 H6            1 RES     
   11415 H6        -427.6200  -289.7229   376.1257 H6            1 RES     
   11416 H6        -430.2695  -291.3028   375.7940 H6            1 RES     
   11417 H6        -428.8089  -291.2727   374.7349 H6            1 RES     
   11418 H6        -429.0707  -292.3490   377.6011 H6            1 RES     
   11419 H6        -427.4976  -292.0819   376.8316 H6            1 RES     
   11420 H6        -428.1097  -294.3071   376.7627 H6            1 RES     
   11421 H6        -430.6699  -293.9262   375.3251 H6            1 RES     
   11422 H6        -429.7475  -295.4807   375.2746 H6            1 RES     
   11423 H6        -429.5254  -295.6221   377.6224 H6            1 RES     
   11424 H6        -430.4209  -294.0280   377.8611 H6            1 RES     
   11425 H6        -431.5338  -296.7982   377.2122 H6            1 RES     
   11426 H6        -432.5101  -295.2793   377.4168 H6            1 RES     
   11427 H6        -430.4718  -296.3661   379.5298 H6            1 RES     
   11428 H6        -431.4822  -294.8925   379.6719 H6            1 RES     
   11429 H6        -433.5411  -296.3053   379.7410 H6            1 RES     
   11430 H6        -432.3627  -296.5568   381.0793 H6            1 RES     
   11431 H6        -431.4642  -298.5974   380.0273 H6            1 RES     
   11432 H6        -432.6584  -298.4390   378.6706 H6            1 RES     
   11433 H6        -433.2271  -298.7161   380.3647 H6            1 RES     
   11434 H6        -426.6332  -293.1737   375.0937 H6            1 RES     
   11435 H6        -427.8809  -293.8238   373.9933 H6            1 RES     
   11436 H6        -426.4447  -295.0750   373.0633 H6            1 RES     
   11437 H6        -424.8984  -295.4353   373.7338 H6            1 RES     
   11438 H6        -427.2954  -297.4148   373.6043 H6            1 RES     
   11439 H6        -425.2925  -298.1773   374.8644 H6            1 RES     
   11440 H6        -425.8177  -299.2660   373.5478 H6            1 RES     
   11441 H6        -423.9795  -298.6071   372.0684 H6            1 RES     
   11442 H6        -423.4983  -297.2971   373.1630 H6            1 RES     
   11443 H6        -421.9275  -299.0445   373.5123 H6            1 RES     
   11444 H6        -422.9582  -299.0081   374.9557 H6            1 RES     
   11445 H6        -424.2536  -300.9823   374.1129 H6            1 RES     
   11446 H6        -422.5064  -301.3001   374.3510 H6            1 RES     
   11447 H6        -423.8851  -300.8256   371.6235 H6            1 RES     
   11448 H6        -423.3160  -302.3808   372.3085 H6            1 RES     
   11449 H6        -420.9485  -301.5297   372.3130 H6            1 RES     
   11450 H6        -421.6876  -301.5420   370.6667 H6            1 RES     
   11451 H6        -421.5123  -299.9911   371.5408 H6            1 RES     
   11452 H6        -427.3870  -296.6814   371.4041 H6            1 RES     
   11453 H6        -426.4988  -298.2294   371.3313 H6            1 RES     
   11454 H6        -424.3274  -296.7155   371.1382 H6            1 RES     
   11455 H6        -425.4157  -295.3244   371.0343 H6            1 RES     
   11456 H6        -424.5507  -296.1049   368.8823 H6            1 RES     
   11457 H6        -425.2445  -297.7459   369.1151 H6            1 RES     
   11458 H6        -426.8956  -295.1328   368.8424 H6            1 RES     
   11459 H6        -427.5463  -296.8011   369.0452 H6            1 RES     
   11460 H6        -426.4889  -297.4948   366.8740 H6            1 RES     
   11461 H6        -427.7060  -296.1782   366.7198 H6            1 RES     
   11462 H6        -424.6468  -295.7620   366.7248 H6            1 RES     
   11463 H6        -425.8828  -294.4630   366.5704 H6            1 RES     
   11464 H6        -424.8232  -295.1128   364.4157 H6            1 RES     
   11465 H6        -425.3883  -296.8096   364.6073 H6            1 RES     
   11466 H6        -427.7739  -296.0105   364.4491 H6            1 RES     
   11467 H6        -426.8049  -295.4983   363.0288 H6            1 RES     
   11468 H6        -427.1812  -294.3013   364.3231 H6            1 RES     
   11469 C0        -434.3448  -289.7405   384.2417 C0            1 RES     
   11470 C0        -434.1754  -289.1647   385.7054 C0            1 RES     
   11471 C0        -432.8731  -288.9149   385.9798 C0            1 RES     
   11472 S1        -432.6060  -288.2627   387.5031 S1            1 RES     
   11473 C0        -434.2574  -288.2620   387.9035 C0            1 RES     
   11474 C0        -434.9622  -288.8590   386.8483 C0            1 RES     
   11475 C0        -432.0675  -289.3576   384.9032 C0            1 RES     
   11476 C0        -432.8421  -289.8332   383.9547 C0            1 RES     
   11477 C0        -432.0660  -290.4824   382.9356 C0            1 RES     
   11478 C0        -430.7142  -290.4506   383.2265 C0            1 RES     
   11479 S1        -430.3028  -289.5517   384.7323 S1            1 RES     
   11480 H2        -436.0082  -289.0088   386.9213 H2            1 RES     
   11481 H2        -432.4836  -291.0343   382.1474 H2            1 RES     
   11482 N3        -436.8749  -286.8280   390.2560 N3            1 RES     
   11483 C0        -436.2885  -287.4645   389.2035 C0            1 RES     
   11484 C0        -434.8810  -287.6375   389.1237 C0            1 RES     
   11485 C0        -434.1275  -287.1255   390.2020 C0            1 RES     
   11486 N3        -432.7752  -287.2019   390.3049 N3            1 RES     
   11487 S1        -432.4811  -286.4492   391.7447 S1            1 RES     
   11488 N3        -433.9773  -286.0048   392.2753 N3            1 RES     
   11489 C0        -434.7836  -286.4684   391.2840 C0            1 RES     
   11490 C0        -436.1601  -286.3250   391.2921 C0            1 RES     
   11491 H4        -436.9351  -287.8009   388.4198 H4            1 RES     
   11492 C5        -434.4978  -280.4375   390.0125 C5            1 RES     
   11493 C5        -433.8865  -281.8385   390.0234 C5            1 RES     
   11494 C5        -434.7827  -282.8941   389.3536 C5            1 RES     
   11495 C5        -434.9680  -282.6685   387.8417 C5            1 RES     
   11496 C5        -435.8357  -283.7761   387.2247 C5            1 RES     
   11497 C5        -435.9058  -283.6453   385.6873 C5            1 RES     
   11498 C5        -436.7183  -284.7578   384.9726 C5            1 RES     
   11499 C5        -436.2558  -286.1433   385.4266 C5            1 RES     
   11500 C5        -436.6423  -287.3605   384.5492 C5            1 RES     
   11501 C5        -438.1471  -287.8314   384.5006 C5            1 RES     
   11502 C5        -438.4455  -288.4969   385.8727 C5            1 RES     
   11503 C5        -439.7413  -289.1760   386.3319 C5            1 RES     
   11504 C5        -439.4290  -289.6835   387.7782 C5            1 RES     
   11505 C5        -440.5324  -290.4206   388.5353 C5            1 RES     
   11506 C5        -440.8202  -291.8072   387.9731 C5            1 RES     
   11507 C5        -435.7366  -287.5024   383.3173 C5            1 RES     
   11508 C0        -435.2478  -288.9902   383.0814 C0            1 RES     
   11509 C5        -434.8871  -289.1716   381.5440 C5            1 RES     
   11510 C5        -435.5811  -290.3382   380.7578 C5            1 RES     
   11511 C5        -434.8443  -291.7053   380.8552 C5            1 RES     
   11512 C5        -433.5777  -291.8350   379.9761 C5            1 RES     
   11513 C5        -432.7260  -293.0762   380.3074 C5            1 RES     
   11514 C5        -433.3451  -294.4251   379.9094 C5            1 RES     
   11515 C5        -433.5549  -294.6151   378.3946 C5            1 RES     
   11516 C5        -432.2575  -294.5067   377.5873 C5            1 RES     
   11517 C5        -435.9565  -289.9562   379.2733 C5            1 RES     
   11518 C5        -434.8717  -289.2294   378.4313 C5            1 RES     
   11519 C5        -435.2096  -289.0932   376.9295 C5            1 RES     
   11520 C5        -436.4718  -288.2663   376.6135 C5            1 RES     
   11521 C5        -436.7283  -288.1119   375.0942 C5            1 RES     
   11522 C5        -435.6598  -287.2638   374.3696 C5            1 RES     
   11523 C5        -435.8997  -287.1145   372.8550 C5            1 RES     
   11524 C5        -437.1764  -286.3516   372.5020 C5            1 RES     
   11525 H6        -434.6193  -280.0593   388.9776 H6            1 RES     
   11526 H6        -433.8277  -279.7381   390.5554 H6            1 RES     
   11527 H6        -435.4854  -280.4479   390.5209 H6            1 RES     
   11528 H6        -432.8899  -281.8159   389.5305 H6            1 RES     
   11529 H6        -433.7377  -282.1353   391.0846 H6            1 RES     
   11530 H6        -434.2962  -283.8844   389.5007 H6            1 RES     
   11531 H6        -435.7706  -282.9165   389.8623 H6            1 RES     
   11532 H6        -433.9627  -282.6791   387.3638 H6            1 RES     
   11533 H6        -435.4494  -281.6893   387.6425 H6            1 RES     
   11534 H6        -435.3596  -284.7443   387.4892 H6            1 RES     
   11535 H6        -436.8575  -283.7455   387.6597 H6            1 RES     
   11536 H6        -436.3273  -282.6564   385.4059 H6            1 RES     
   11537 H6        -434.8615  -283.6908   385.3042 H6            1 RES     
   11538 H6        -437.8066  -284.6577   385.1726 H6            1 RES     
   11539 H6        -436.5462  -284.6330   383.8817 H6            1 RES     
   11540 H6        -436.6057  -286.2965   386.4646 H6            1 RES     
   11541 H6        -435.1431  -286.1339   385.4784 H6            1 RES     
   11542 H6        -436.2199  -288.1365   385.0767 H6            1 RES     
   11543 H6        -438.8232  -286.9827   384.2653 H6            1 RES     
   11544 H6        -438.2721  -288.6175   383.7235 H6            1 RES     
   11545 H6        -437.7411  -289.3492   385.9062 H6            1 RES     
   11546 H6        -438.2299  -287.7260   386.6316 H6            1 RES     
   11547 H6        -439.9925  -290.0238   385.6584 H6            1 RES     
   11548 H6        -440.5804  -288.4501   386.3513 H6            1 RES     
   11549 H6        -438.5323  -290.3474   387.7675 H6            1 RES     
   11550 H6        -439.1721  -288.7963   388.3978 H6            1 RES     
   11551 H6        -441.4520  -289.8021   388.5717 H6            1 RES     
   11552 H6        -440.1702  -290.5666   389.5793 H6            1 RES     
   11553 H6        -439.8939  -292.4238   387.9815 H6            1 RES     
   11554 H6        -441.2136  -291.7410   386.9404 H6            1 RES     
   11555 H6        -441.5718  -292.3086   388.6196 H6            1 RES     
   11556 H6        -434.7984  -286.9156   383.4218 H6            1 RES     
   11557 H6        -436.3048  -287.0568   382.4724 H6            1 RES     
   11558 H6        -435.3226  -288.2829   381.0492 H6            1 RES     
   11559 H6        -433.8073  -289.0572   381.3229 H6            1 RES     
   11560 H6        -436.5642  -290.4980   381.2557 H6            1 RES     
   11561 H6        -434.6069  -291.8766   381.9259 H6            1 RES     
   11562 H6        -435.5412  -292.5121   380.5411 H6            1 RES     
   11563 H6        -433.8438  -291.8530   378.9022 H6            1 RES     
   11564 H6        -432.9375  -290.9457   380.1273 H6            1 RES     
   11565 H6        -431.7424  -292.9733   379.8056 H6            1 RES     
   11566 H6        -432.5168  -293.1009   381.3966 H6            1 RES     
   11567 H6        -434.3141  -294.5601   380.4342 H6            1 RES     
   11568 H6        -432.6596  -295.2262   380.2628 H6            1 RES     
   11569 H6        -434.2925  -293.8835   378.0053 H6            1 RES     
   11570 H6        -433.9740  -295.6319   378.2373 H6            1 RES     
   11571 H6        -431.5053  -295.2343   377.9605 H6            1 RES     
   11572 H6        -432.4648  -294.7255   376.5193 H6            1 RES     
   11573 H6        -431.8350  -293.4821   377.6405 H6            1 RES     
   11574 H6        -436.8209  -289.2586   379.3102 H6            1 RES     
   11575 H6        -436.3048  -290.8759   378.7547 H6            1 RES     
   11576 H6        -433.9129  -289.7638   378.4608 H6            1 RES     
   11577 H6        -434.6819  -288.2194   378.8531 H6            1 RES     
   11578 H6        -434.3312  -288.6054   376.4621 H6            1 RES     
   11579 H6        -435.3176  -290.1071   376.4847 H6            1 RES     
   11580 H6        -436.3938  -287.2565   377.0716 H6            1 RES     
   11581 H6        -437.3488  -288.7847   377.0517 H6            1 RES     
   11582 H6        -436.7966  -289.1169   374.6230 H6            1 RES     
   11583 H6        -437.7133  -287.6092   374.9765 H6            1 RES     
   11584 H6        -434.6694  -287.7484   374.4790 H6            1 RES     
   11585 H6        -435.6082  -286.2541   374.8323 H6            1 RES     
   11586 H6        -435.0421  -286.5487   372.4280 H6            1 RES     
   11587 H6        -435.9221  -288.1165   372.3751 H6            1 RES     
   11588 H6        -438.0784  -286.8977   372.8435 H6            1 RES     
   11589 H6        -437.2430  -286.2405   371.3983 H6            1 RES     
   11590 H6        -437.1594  -285.3385   372.9568 H6            1 RES     
   11591 C0        -440.1604  -284.4581   394.3830 C0            1 RES     
   11592 C0        -439.6576  -284.2852   395.8731 C0            1 RES     
   11593 C0        -438.3062  -284.3398   395.9375 C0            1 RES     
   11594 S1        -437.6839  -284.1253   397.4814 S1            1 RES     
   11595 C0        -439.2193  -283.9306   398.1828 C0            1 RES     
   11596 C0        -440.1832  -284.1269   397.1835 C0            1 RES     
   11597 C0        -437.7819  -284.6481   394.6591 C0            1 RES     
   11598 C0        -438.7715  -284.7416   393.8003 C0            1 RES     
   11599 C0        -438.3113  -285.2557   392.5409 C0            1 RES     
   11600 C0        -436.9562  -285.5311   392.5672 C0            1 RES     
   11601 S1        -436.1444  -285.1020   394.1170 S1            1 RES     
   11602 H2        -441.2146  -284.1042   397.4238 H2            1 RES     
   11603 H2        -438.9490  -285.5226   391.7519 H2            1 RES     
   11604 N3        -441.0930  -282.6610   401.2356 N3            1 RES     
   11605 C0        -440.8181  -283.1217   399.9830 C0            1 RES     
   11606 C0        -439.5078  -283.5146   399.6011 C0            1 RES     
   11607 C0        -438.5115  -283.4135   400.5960 C0            1 RES     
   11608 N3        -437.2067  -283.7477   400.4198 N3            1 RES     
   11609 S1        -436.5492  -283.4221   401.8988 S1            1 RES     
   11610 N3        -437.8206  -282.8614   402.7858 N3            1 RES     
   11611 C0        -438.8448  -282.9278   401.8944 C0            1 RES     
   11612 C0        -440.1422  -282.5517   402.1956 C0            1 RES     
   11613 H4        -441.6302  -283.1438   399.2862 H4            1 RES     
   11614 C5        -437.4678  -276.9135   401.8464 C5            1 RES     
   11615 C5        -437.1752  -278.3617   401.4543 C5            1 RES     
   11616 C5        -438.3652  -279.0542   400.7684 C5            1 RES     
   11617 C5        -438.7192  -278.4471   399.3984 C5            1 RES     
   11618 C5        -439.8849  -279.2068   398.7471 C5            1 RES     
   11619 C5        -440.1518  -278.7044   397.3111 C5            1 RES     
   11620 C5        -441.2797  -279.4553   396.5544 C5            1 RES     
   11621 C5        -441.0621  -280.9680   396.6195 C5            1 RES     
   11622 C5        -441.8251  -281.8548   395.6036 C5            1 RES     
   11623 C5        -443.3860  -282.0296   395.7498 C5            1 RES     
   11624 C5        -443.6137  -282.9392   396.9890 C5            1 RES     
   11625 C5        -444.9423  -283.4702   397.5402 C5            1 RES     
   11626 C5        -444.5356  -284.3535   398.7656 C5            1 RES     
   11627 C5        -445.6468  -285.0443   399.5542 C5            1 RES     
   11628 C5        -446.3041  -286.1852   398.7874 C5            1 RES     
   11629 C5        -441.1627  -281.8563   394.2182 C5            1 RES     
   11630 C0        -441.0434  -283.3074   393.5951 C0            1 RES     
   11631 C5        -440.9610  -283.1787   392.0129 C5            1 RES     
   11632 C5        -441.9966  -283.9850   391.1538 C5            1 RES     
   11633 C5        -441.5629  -285.4434   390.8277 C5            1 RES     
   11634 C5        -440.4973  -285.5803   389.7143 C5            1 RES     
   11635 C5        -439.8911  -286.9940   389.6163 C5            1 RES     
   11636 C5        -440.8361  -288.0800   389.0784 C5            1 RES     
   11637 C5        -441.3030  -287.8649   387.6257 C5            1 RES     
   11638 C5        -440.1462  -287.7967   386.6237 C5            1 RES     
   11639 C5        -442.4967  -283.2017   389.8784 C5            1 RES     
   11640 C5        -441.4183  -282.4971   389.0098 C5            1 RES     
   11641 C5        -441.9372  -281.9511   387.6605 C5            1 RES     
   11642 C5        -443.0261  -280.8650   387.7676 C5            1 RES     
   11643 C5        -443.4652  -280.3116   386.3896 C5            1 RES     
   11644 C5        -442.3592  -279.5163   385.6615 C5            1 RES     
   11645 C5        -442.7826  -278.9718   384.2838 C5            1 RES     
   11646 C5        -443.9046  -277.9354   384.3451 C5            1 RES     
   11647 H6        -437.6572  -276.2850   400.9530 H6            1 RES     
   11648 H6        -436.5911  -276.4915   402.3814 H6            1 RES     
   11649 H6        -438.3486  -276.8712   402.5219 H6            1 RES     
   11650 H6        -436.2809  -278.3975   400.7945 H6            1 RES     
   11651 H6        -436.9383  -278.9234   402.3843 H6            1 RES     
   11652 H6        -438.0853  -280.1206   400.6147 H6            1 RES     
   11653 H6        -439.2488  -279.0235   401.4418 H6            1 RES     
   11654 H6        -437.8213  -278.5197   398.7445 H6            1 RES     
   11655 H6        -439.0043  -277.3798   399.4988 H6            1 RES     
   11656 H6        -439.5930  -280.2781   398.7126 H6            1 RES     
   11657 H6        -440.8009  -279.1020   399.3670 H6            1 RES     
   11658 H6        -440.3891  -277.6189   397.3231 H6            1 RES     
   11659 H6        -439.2097  -278.8397   396.7336 H6            1 RES     
   11660 H6        -442.2797  -279.2166   396.9757 H6            1 RES     
   11661 H6        -441.2480  -279.1071   395.4994 H6            1 RES     
   11662 H6        -441.2794  -281.2996   397.6520 H6            1 RES     
   11663 H6        -439.9780  -281.1661   396.4576 H6            1 RES     
   11664 H6        -441.5051  -282.7955   395.8711 H6            1 RES     
   11665 H6        -443.8923  -281.0445   395.8264 H6            1 RES     
   11666 H6        -443.7895  -282.5742   394.8677 H6            1 RES     
   11667 H6        -443.1106  -283.8848   396.7124 H6            1 RES     
   11668 H6        -443.1287  -282.4207   397.8331 H6            1 RES     
   11669 H6        -445.4655  -284.0763   396.7693 H6            1 RES     
   11670 H6        -445.5946  -282.6344   397.8676 H6            1 RES     
   11671 H6        -443.8131  -285.1423   398.4482 H6            1 RES     
   11672 H6        -444.0064  -283.6979   399.4917 H6            1 RES     
   11673 H6        -446.3972  -284.3009   399.8915 H6            1 RES     
   11674 H6        -445.1740  -285.4952   400.4573 H6            1 RES     
   11675 H6        -445.5401  -286.9385   398.4923 H6            1 RES     
   11676 H6        -446.8224  -285.8078   397.8849 H6            1 RES     
   11677 H6        -447.0416  -286.6863   399.4503 H6            1 RES     
   11678 H6        -440.1159  -281.4847   394.2579 H6            1 RES     
   11679 H6        -441.7410  -281.1304   393.6067 H6            1 RES     
   11680 H6        -441.2648  -282.1357   391.8024 H6            1 RES     
   11681 H6        -439.9265  -283.2059   391.6168 H6            1 RES     
   11682 H6        -442.9065  -284.0839   391.7880 H6            1 RES     
   11683 H6        -441.2120  -285.9030   391.7753 H6            1 RES     
   11684 H6        -442.4547  -286.0176   390.4957 H6            1 RES     
   11685 H6        -440.9167  -285.2958   388.7306 H6            1 RES     
   11686 H6        -439.6667  -284.8786   389.9176 H6            1 RES     
   11687 H6        -438.9935  -286.9488   388.9668 H6            1 RES     
   11688 H6        -439.5336  -287.3130   390.6168 H6            1 RES     
   11689 H6        -441.7231  -288.1639   389.7407 H6            1 RES     
   11690 H6        -440.2931  -289.0494   389.1232 H6            1 RES     
   11691 H6        -441.9164  -286.9442   387.5424 H6            1 RES     
   11692 H6        -441.9482  -288.7256   387.3481 H6            1 RES     
   11693 H6        -439.5202  -288.7123   386.6896 H6            1 RES     
   11694 H6        -440.5509  -287.7158   385.5936 H6            1 RES     
   11695 H6        -439.5114  -286.9044   386.8023 H6            1 RES     
   11696 H6        -443.1769  -282.3925   390.2216 H6            1 RES     
   11697 H6        -443.1062  -283.8962   389.2602 H6            1 RES     
   11698 H6        -440.6022  -283.1827   388.7454 H6            1 RES     
   11699 H6        -440.9568  -281.6656   389.5838 H6            1 RES     
   11700 H6        -441.0538  -281.5279   387.1425 H6            1 RES     
   11701 H6        -442.3239  -282.7953   387.0478 H6            1 RES     
   11702 H6        -442.6673  -280.0226   388.3980 H6            1 RES     
   11703 H6        -443.9190  -281.3108   388.2510 H6            1 RES     
   11704 H6        -443.8155  -281.1480   385.7457 H6            1 RES     
   11705 H6        -444.3263  -279.6309   386.5679 H6            1 RES     
   11706 H6        -441.4902  -280.1787   385.4778 H6            1 RES     
   11707 H6        -442.0252  -278.6705   386.3013 H6            1 RES     
   11708 H6        -441.8966  -278.4800   383.8244 H6            1 RES     
   11709 H6        -443.0893  -279.8113   383.6234 H6            1 RES     
   11710 H6        -444.8419  -278.3804   384.7350 H6            1 RES     
   11711 H6        -444.1082  -277.5555   383.3209 H6            1 RES     
   11712 H6        -443.6045  -277.0785   384.9847 H6            1 RES     
   11713 C0        -443.1497  -280.8016   406.3107 C0            1 RES     
   11714 C0        -442.4071  -281.0785   407.6799 C0            1 RES     
   11715 C0        -441.1042  -281.3826   407.4713 C0            1 RES     
   11716 S1        -440.2294  -281.6533   408.8778 S1            1 RES     
   11717 C0        -441.5669  -281.3651   409.8855 C0            1 RES     
   11718 C0        -442.6873  -281.1464   409.0711 C0            1 RES     
   11719 C0        -440.8526  -281.4653   406.0806 C0            1 RES     
   11720 C0        -441.9551  -281.1773   405.4270 C0            1 RES     
   11721 C0        -441.8066  -281.4499   404.0249 C0            1 RES     
   11722 C0        -440.5530  -281.9566   403.7341 C0            1 RES     
   11723 S1        -439.4484  -282.0569   405.1535 S1            1 RES     
   11724 H2        -443.6429  -281.0013   409.5043 H2            1 RES     
   11725 H2        -442.5959  -281.4059   403.3354 H2            1 RES     
   11726 N3        -442.6541  -280.5491   413.4344 N3            1 RES     
   11727 C0        -442.6721  -280.7399   412.0853 C0            1 RES     
   11728 C0        -441.5471  -281.2540   411.3872 C0            1 RES     
   11729 C0        -440.4164  -281.5682   412.1718 C0            1 RES     
   11730 N3        -439.2539  -282.0742   411.6842 N3            1 RES     
   11731 S1        -438.3309  -282.2295   413.0443 S1            1 RES     
   11732 N3        -439.3079  -281.6819   414.2540 N3            1 RES     
   11733 C0        -440.4428  -281.3542   413.5812 C0            1 RES     
   11734 C0        -441.5707  -280.8392   414.1958 C0            1 RES     
   11735 H4        -443.5639  -280.4533   411.5677 H4            1 RES     
   11736 C5        -437.8349  -275.8375   414.4949 C5            1 RES     
   11737 C5        -437.9198  -277.1793   413.7676 C5            1 RES     
   11738 C5        -439.3181  -277.4696   413.1965 C5            1 RES     
   11739 C5        -439.7326  -276.5021   412.0727 C5            1 RES     
   11740 C5        -441.1169  -276.8692   411.5164 C5            1 RES     
   11741 C5        -441.4793  -276.0012   410.2913 C5            1 RES     
   11742 C5        -442.8407  -276.3414   409.6283 C5            1 RES     
   11743 C5        -442.9442  -277.8404   409.3413 C5            1 RES     
   11744 C5        -444.0206  -278.3127   408.3317 C5            1 RES     
   11745 C5        -445.5437  -278.2412   408.7361 C5            1 RES     
   11746 C5        -445.7750  -279.3648   409.7844 C5            1 RES     
   11747 C5        -447.0900  -279.7704   410.4605 C5            1 RES     
   11748 C5        -446.7049  -280.9766   411.3791 C5            1 RES     
   11749 C5        -447.8092  -281.6294   412.2088 C5            1 RES     
   11750 C5        -448.8009  -282.4223   411.3666 C5            1 RES     
   11751 C5        -443.5859  -278.1011   406.8743 C5            1 RES     
   11752 C0        -443.8728  -279.3604   405.9579 C0            1 RES     
   11753 C5        -443.9994  -278.8760   404.4492 C5            1 RES     
   11754 C5        -445.2987  -279.2610   403.6590 C5            1 RES     
   11755 C5        -445.2396  -280.6529   402.9659 C5            1 RES     
   11756 C5        -444.4044  -280.7058   401.6646 C5            1 RES     
   11757 C5        -444.1356  -282.1394   401.1664 C5            1 RES     
   11758 C5        -445.3597  -282.8838   400.6103 C5            1 RES     
   11759 C5        -445.9792  -282.2514   399.3489 C5            1 RES     
   11760 C5        -444.9954  -282.1508   398.1788 C5            1 RES     
   11761 C5        -445.8026  -278.1220   402.6899 C5            1 RES     
   11762 C5        -444.7389  -277.4313   401.7924 C5            1 RES     
   11763 C5        -445.3227  -276.4982   400.7077 C5            1 RES     
   11764 C5        -446.1263  -275.2952   401.2405 C5            1 RES     
   11765 C5        -446.6355  -274.3622   400.1144 C5            1 RES     
   11766 C5        -445.5051  -273.6231   399.3650 C5            1 RES     
   11767 C5        -446.0011  -272.7015   398.2344 C5            1 RES     
   11768 C5        -446.8540  -271.5293   398.7195 C5            1 RES     
   11769 H6        -438.0154  -274.9916   413.8015 H6            1 RES     
   11770 H6        -436.8190  -275.7149   414.9262 H6            1 RES     
   11771 H6        -438.5766  -275.8033   415.3211 H6            1 RES     
   11772 H6        -437.1612  -277.2134   412.9553 H6            1 RES     
   11773 H6        -437.6736  -277.9784   414.5007 H6            1 RES     
   11774 H6        -439.2985  -278.5010   412.7782 H6            1 RES     
   11775 H6        -440.0654  -277.4455   414.0188 H6            1 RES     
   11776 H6        -438.9776  -276.5734   411.2578 H6            1 RES     
   11777 H6        -439.7650  -275.4563   412.4410 H6            1 RES     
   11778 H6        -441.0690  -277.9356   411.2092 H6            1 RES     
   11779 H6        -441.8874  -276.7559   412.3087 H6            1 RES     
   11780 H6        -441.4747  -274.9254   410.5692 H6            1 RES     
   11781 H6        -440.6837  -276.1584   409.5285 H6            1 RES     
   11782 H6        -443.6932  -276.0383   410.2733 H6            1 RES     
   11783 H6        -442.8915  -275.7637   408.6803 H6            1 RES     
   11784 H6        -443.0724  -278.3644   410.3067 H6            1 RES     
   11785 H6        -441.9635  -278.1810   408.9375 H6            1 RES     
   11786 H6        -443.8731  -279.3311   408.3357 H6            1 RES     
   11787 H6        -445.8107  -277.2295   409.1073 H6            1 RES     
   11788 H6        -446.1800  -278.4813   407.8558 H6            1 RES     
   11789 H6        -445.5321  -280.2907   409.2299 H6            1 RES     
   11790 H6        -445.0710  -279.1548   410.6072 H6            1 RES     
   11791 H6        -447.8386  -280.0747   409.6974 H6            1 RES     
   11792 H6        -447.4929  -278.9354   411.0701 H6            1 RES     
   11793 H6        -446.2227  -281.7814   410.7752 H6            1 RES     
   11794 H6        -445.9466  -280.6154   412.1082 H6            1 RES     
   11795 H6        -448.3252  -280.8679   412.8279 H6            1 RES     
   11796 H6        -447.3156  -282.3576   412.8934 H6            1 RES     
   11797 H6        -448.2678  -283.2057   410.7833 H6            1 RES     
   11798 H6        -449.3541  -281.7565   410.6764 H6            1 RES     
   11799 H6        -449.5223  -282.9294   412.0426 H6            1 RES     
   11800 H6        -442.4897  -277.9388   406.7871 H6            1 RES     
   11801 H6        -444.0795  -277.1610   406.5459 H6            1 RES     
   11802 H6        -444.1010  -277.7763   404.5176 H6            1 RES     
   11803 H6        -443.0648  -278.9891   403.8648 H6            1 RES     
   11804 H6        -446.1048  -279.3468   404.4223 H6            1 RES     
   11805 H6        -444.8591  -281.3786   403.7147 H6            1 RES     
   11806 H6        -446.2726  -280.9665   402.7013 H6            1 RES     
   11807 H6        -444.8939  -280.1268   400.8585 H6            1 RES     
   11808 H6        -443.4223  -280.2291   401.8431 H6            1 RES     
   11809 H6        -443.3550  -282.0991   400.3797 H6            1 RES     
   11810 H6        -443.7107  -282.7445   401.9934 H6            1 RES     
   11811 H6        -446.1363  -282.9660   401.3993 H6            1 RES     
   11812 H6        -445.0359  -283.9157   400.3518 H6            1 RES     
   11813 H6        -446.3870  -281.2446   399.5740 H6            1 RES     
   11814 H6        -446.8272  -282.8949   399.0310 H6            1 RES     
   11815 H6        -444.5769  -283.1509   397.9357 H6            1 RES     
   11816 H6        -445.5211  -281.7579   397.2840 H6            1 RES     
   11817 H6        -444.1654  -281.4518   398.4101 H6            1 RES     
   11818 H6        -446.2358  -277.3113   403.3146 H6            1 RES     
   11819 H6        -446.6309  -278.5320   402.0719 H6            1 RES     
   11820 H6        -444.1364  -278.1665   401.2424 H6            1 RES     
   11821 H6        -444.0308  -276.8540   402.4242 H6            1 RES     
   11822 H6        -444.4557  -276.1255   400.1270 H6            1 RES     
   11823 H6        -445.9669  -277.0916   400.0218 H6            1 RES     
   11824 H6        -445.5067  -274.7030   401.9484 H6            1 RES     
   11825 H6        -447.0123  -275.6797   401.7852 H6            1 RES     
   11826 H6        -447.2476  -274.9471   399.3933 H6            1 RES     
   11827 H6        -447.2953  -273.6035   400.5894 H6            1 RES     
   11828 H6        -444.8346  -274.3646   398.8871 H6            1 RES     
   11829 H6        -444.9073  -273.0255   400.0874 H6            1 RES     
   11830 H6        -445.1083  -272.2776   397.7234 H6            1 RES     
   11831 H6        -446.5742  -273.2930   397.4883 H6            1 RES     
   11832 H6        -447.7966  -271.8830   399.1831 H6            1 RES     
   11833 H6        -447.1207  -270.8873   397.8525 H6            1 RES     
   11834 H6        -446.2866  -270.9150   399.4503 H6            1 RES     
   11835 C0        -443.4932  -279.6180   419.0800 C0            1 RES     
   11836 C0        -442.6331  -280.3378   420.1957 C0            1 RES     
   11837 C0        -441.4707  -280.8070   419.6835 C0            1 RES     
   11838 S1        -440.4760  -281.5530   420.8109 S1            1 RES     
   11839 C0        -441.5571  -281.2827   422.0937 C0            1 RES     
   11840 C0        -442.7126  -280.6842   421.5713 C0            1 RES     
   11841 C0        -441.4508  -280.5997   418.2832 C0            1 RES     
   11842 C0        -442.5504  -279.9762   417.9258 C0            1 RES     
   11843 C0        -442.6724  -279.9296   416.4958 C0            1 RES     
   11844 C0        -441.6130  -280.5641   415.8729 C0            1 RES     
   11845 S1        -440.3582  -281.1906   417.0033 S1            1 RES     
   11846 H2        -443.5405  -280.4811   422.2001 H2            1 RES     
   11847 H2        -443.5270  -279.5855   415.9943 H2            1 RES     
   11848 N3        -441.9085  -281.1557   425.8756 N3            1 RES     
   11849 C0        -442.1659  -281.0145   424.5450 C0            1 RES     
   11850 C0        -441.2925  -281.5368   423.5542 C0            1 RES     
   11851 C0        -440.1519  -282.2213   424.0266 C0            1 RES     
   11852 N3        -439.2094  -282.7925   423.2324 N3            1 RES     
   11853 S1        -438.1504  -283.4257   424.3295 S1            1 RES     
   11854 N3        -438.7982  -283.0187   425.7898 N3            1 RES     
   11855 C0        -439.9234  -282.3471   425.4284 C0            1 RES     
   11856 C0        -440.8118  -281.8035   426.3397 C0            1 RES     
   11857 H4        -443.0423  -280.4614   424.2775 H4            1 RES     
   11858 C5        -436.0912  -277.7498   426.9280 C5            1 RES     
   11859 C5        -436.5673  -278.8442   425.9729 C5            1 RES     
   11860 C5        -438.0641  -278.7411   425.6338 C5            1 RES     
   11861 C5        -438.4236  -277.4771   424.8313 C5            1 RES     
   11862 C5        -439.9209  -277.4533   424.4882 C5            1 RES     
   11863 C5        -440.2664  -276.2695   423.5582 C5            1 RES     
   11864 C5        -441.7517  -276.1987   423.1137 C5            1 RES     
   11865 C5        -442.2143  -277.5445   422.5528 C5            1 RES     
   11866 C5        -443.5038  -277.5675   421.6941 C5            1 RES     
   11867 C5        -444.8996  -277.3286   422.3891 C5            1 RES     
   11868 C5        -445.2082  -278.6106   423.2112 C5            1 RES     
   11869 C5        -446.4649  -278.9286   424.0301 C5            1 RES     
   11870 C5        -446.2152  -280.3667   424.5927 C5            1 RES     
   11871 C5        -447.2985  -280.9941   425.4683 C5            1 RES     
   11872 C5        -448.5500  -281.3779   424.6886 C5            1 RES     
   11873 C5        -443.2541  -277.0952   420.2544 C5            1 RES     
   11874 C0        -443.9357  -278.0305   419.1733 C0            1 RES     
   11875 C5        -444.1772  -277.1872   417.8478 C5            1 RES     
   11876 C5        -445.6309  -277.1397   417.2601 C5            1 RES     
   11877 C5        -445.9737  -278.3154   416.3000 C5            1 RES     
   11878 C5        -445.3706  -278.2031   414.8796 C5            1 RES     
   11879 C5        -445.4910  -279.5016   414.0580 C5            1 RES     
   11880 C5        -446.9142  -279.8663   413.6074 C5            1 RES     
   11881 C5        -447.5636  -278.8540   412.6440 C5            1 RES     
   11882 C5        -446.7650  -278.6522   411.3523 C5            1 RES     
   11883 C5        -446.0172  -275.7331   416.6582 C5            1 RES     
   11884 C5        -444.9750  -275.0462   415.7329 C5            1 RES     
   11885 C5        -445.4995  -273.7948   414.9935 C5            1 RES     
   11886 C5        -445.9398  -272.6312   415.9041 C5            1 RES     
   11887 C5        -446.3985  -271.3831   415.1105 C5            1 RES     
   11888 C5        -445.2596  -270.6968   414.3246 C5            1 RES     
   11889 C5        -445.7086  -269.4608   413.5218 C5            1 RES     
   11890 C5        -446.2101  -268.3067   414.3898 C5            1 RES     
   11891 H6        -436.1872  -276.7453   426.4691 H6            1 RES     
   11892 H6        -435.0203  -277.9130   427.1721 H6            1 RES     
   11893 H6        -436.6781  -277.7835   427.8705 H6            1 RES     
   11894 H6        -435.9621  -278.8166   425.0405 H6            1 RES     
   11895 H6        -436.3921  -279.8249   426.4669 H6            1 RES     
   11896 H6        -438.3273  -279.6306   425.0186 H6            1 RES     
   11897 H6        -438.6591  -278.7825   426.5716 H6            1 RES     
   11898 H6        -437.8301  -277.4839   423.8896 H6            1 RES     
   11899 H6        -438.1770  -276.5597   425.4040 H6            1 RES     
   11900 H6        -440.1480  -278.4077   423.9671 H6            1 RES     
   11901 H6        -440.5238  -277.3983   425.4197 H6            1 RES     
   11902 H6        -439.9910  -275.3084   424.0431 H6            1 RES     
   11903 H6        -439.6444  -276.3778   422.6412 H6            1 RES     
   11904 H6        -442.4149  -275.9130   423.9582 H6            1 RES     
   11905 H6        -441.8173  -275.4126   422.3308 H6            1 RES     
   11906 H6        -442.3075  -278.2521   423.3977 H6            1 RES     
   11907 H6        -441.3998  -277.9458   421.9077 H6            1 RES     
   11908 H6        -443.5784  -278.5673   421.4623 H6            1 RES     
   11909 H6        -444.8865  -276.4033   423.0026 H6            1 RES     
   11910 H6        -445.6954  -277.2375   421.6172 H6            1 RES     
   11911 H6        -445.2534  -279.4061   422.4438 H6            1 RES     
   11912 H6        -444.3621  -278.7287   423.9089 H6            1 RES     
   11913 H6        -447.3656  -278.9069   423.3791 H6            1 RES     
   11914 H6        -446.5856  -278.2049   424.8626 H6            1 RES     
   11915 H6        -446.0107  -281.0766   423.7565 H6            1 RES     
   11916 H6        -445.2980  -280.3275   425.2206 H6            1 RES     
   11917 H6        -447.5426  -280.3232   426.3167 H6            1 RES     
   11918 H6        -446.8763  -281.9389   425.8826 H6            1 RES     
   11919 H6        -448.2888  -282.0813   423.8669 H6            1 RES     
   11920 H6        -449.0439  -280.4810   424.2676 H6            1 RES     
   11921 H6        -449.2551  -281.8967   425.3728 H6            1 RES     
   11922 H6        -442.1737  -277.1114   419.9935 H6            1 RES     
   11923 H6        -443.5783  -276.0326   420.2252 H6            1 RES     
   11924 H6        -444.0302  -276.1349   418.1568 H6            1 RES     
   11925 H6        -443.3852  -277.3200   417.0843 H6            1 RES     
   11926 H6        -446.3149  -277.2619   418.1302 H6            1 RES     
   11927 H6        -445.6507  -279.2532   416.7982 H6            1 RES     
   11928 H6        -447.0773  -278.3713   416.1804 H6            1 RES     
   11929 H6        -445.8386  -277.3727   414.3175 H6            1 RES     
   11930 H6        -444.2940  -277.9620   414.9596 H6            1 RES     
   11931 H6        -444.8448  -279.4128   413.1611 H6            1 RES     
   11932 H6        -445.0878  -280.3505   414.6473 H6            1 RES     
   11933 H6        -447.5652  -279.9963   414.4972 H6            1 RES     
   11934 H6        -446.8602  -280.8476   413.0871 H6            1 RES     
   11935 H6        -447.7090  -277.8740   413.1433 H6            1 RES     
   11936 H6        -448.5670  -279.2448   412.3706 H6            1 RES     
   11937 H6        -446.6104  -279.6232   410.8350 H6            1 RES     
   11938 H6        -447.3209  -277.9722   410.6740 H6            1 RES     
   11939 H6        -445.7799  -278.1846   411.5574 H6            1 RES     
   11940 H6        -446.1701  -275.0310   417.5061 H6            1 RES     
   11941 H6        -446.9960  -275.8330   416.1403 H6            1 RES     
   11942 H6        -444.6315  -275.7234   414.9397 H6            1 RES     
   11943 H6        -444.0745  -274.7687   416.3212 H6            1 RES     
   11944 H6        -444.6684  -273.4525   414.3455 H6            1 RES     
   11945 H6        -446.3498  -274.0860   414.3379 H6            1 RES     
   11946 H6        -445.1103  -272.3420   416.5853 H6            1 RES     
   11947 H6        -446.7971  -272.9728   416.5189 H6            1 RES     
   11948 H6        -447.2211  -271.6634   414.4166 H6            1 RES     
   11949 H6        -446.8033  -270.6554   415.8476 H6            1 RES     
   11950 H6        -444.8411  -271.4091   413.5862 H6            1 RES     
   11951 H6        -444.4479  -270.4021   415.0251 H6            1 RES     
   11952 H6        -444.8313  -269.0907   412.9463 H6            1 RES     
   11953 H6        -446.4986  -269.7484   412.7951 H6            1 RES     
   11954 H6        -447.1275  -268.5897   414.9438 H6            1 RES     
   11955 H6        -446.4585  -267.4407   413.7393 H6            1 RES     
   11956 H6        -445.4230  -267.9927   415.1077 H6            1 RES     
   11957 C0        -441.6859  -281.4603   431.6464 C0            1 RES     
   11958 C0        -440.8444  -282.5638   432.4060 C0            1 RES     
   11959 C0        -439.8978  -283.0939   431.5957 C0            1 RES     
   11960 S1        -438.9302  -284.2486   432.3354 S1            1 RES     
   11961 C0        -439.7269  -284.1058   433.8294 C0            1 RES     
   11962 C0        -440.7921  -283.2075   433.6715 C0            1 RES     
   11963 C0        -440.0411  -282.5667   430.2897 C0            1 RES     
   11964 C0        -441.0226  -281.6935   430.2845 C0            1 RES     
   11965 C0        -441.3416  -281.2879   428.9444 C0            1 RES     
   11966 C0        -440.5462  -281.9317   428.0139 C0            1 RES     
   11967 S1        -439.3014  -283.0185   428.7309 S1            1 RES     
   11968 H2        -441.4552  -283.0179   434.4753 H2            1 RES     
   11969 H2        -442.1674  -280.6903   428.6969 H2            1 RES     
   11970 N3        -439.4805  -284.8214   437.5536 N3            1 RES     
   11971 C0        -439.8955  -284.3252   436.3543 C0            1 RES     
   11972 C0        -439.3100  -284.7418   435.1292 C0            1 RES     
   11973 C0        -438.2851  -285.7079   435.2245 C0            1 RES     
   11974 N3        -437.6143  -286.2300   434.1649 N3            1 RES     
   11975 S1        -436.5649  -287.2810   434.8862 S1            1 RES     
   11976 N3        -436.8878  -287.1256   436.4953 N3            1 RES     
   11977 C0        -437.8843  -286.2010   436.5009 C0            1 RES     
   11978 C0        -438.4914  -285.7426   437.6569 C0            1 RES     
   11979 H4        -440.6631  -283.5798   436.3782 H4            1 RES     
   11980 C5        -432.9797  -282.8358   438.1410 C5            1 RES     
   11981 C5        -433.8144  -283.5712   437.0926 C5            1 RES     
   11982 C5        -435.2878  -283.1300   437.0753 C5            1 RES     
   11983 C5        -435.4834  -281.6687   436.6311 C5            1 RES     
   11984 C5        -436.9749  -281.3023   436.5938 C5            1 RES     
   11985 C5        -437.1929  -279.8898   436.0081 C5            1 RES     
   11986 C5        -438.6777  -279.4564   435.8808 C5            1 RES     
   11987 C5        -439.4949  -280.5281   435.1572 C5            1 RES     
   11988 C5        -440.8719  -280.1203   434.5754 C5            1 RES     
   11989 C5        -442.0661  -279.8127   435.5592 C5            1 RES     
   11990 C5        -442.5166  -281.1788   436.1468 C5            1 RES     
   11991 C5        -443.6772  -281.4571   437.1094 C5            1 RES     
   11992 C5        -443.6603  -283.0086   437.3089 C5            1 RES     
   11993 C5        -444.7111  -283.6264   438.2297 C5            1 RES     
   11994 C5        -446.1169  -283.5887   437.6432 C5            1 RES     
   11995 C5        -440.7425  -279.3708   433.2415 C5            1 RES     
   11996 C0        -441.7602  -279.8882   432.1440 C0            1 RES     
   11997 C5        -442.0090  -278.7253   431.0893 C5            1 RES     
   11998 C5        -443.4894  -278.2858   430.8137 C5            1 RES     
   11999 C5        -444.2135  -279.1209   429.7184 C5            1 RES     
   12000 C5        -443.8169  -278.7818   428.2619 C5            1 RES     
   12001 C5        -444.3320  -279.8063   427.2319 C5            1 RES     
   12002 C5        -445.8509  -279.7985   426.9982 C5            1 RES     
   12003 C5        -446.4040  -278.4887   426.4038 C5            1 RES     
   12004 C5        -445.7804  -278.1288   425.0516 C5            1 RES     
   12005 C5        -443.6508  -276.7311   430.5962 C5            1 RES     
   12006 C5        -442.6343  -276.0376   429.6478 C5            1 RES     
   12007 C5        -442.9825  -274.5744   429.2932 C5            1 RES     
   12008 C5        -443.0245  -273.6019   430.4887 C5            1 RES     
   12009 C5        -443.3180  -272.1405   430.0689 C5            1 RES     
   12010 C5        -442.1876  -271.4975   429.2354 C5            1 RES     
   12011 C5        -442.4756  -270.0472   428.8025 C5            1 RES     
   12012 C5        -442.5851  -269.0629   429.9670 C5            1 RES     
   12013 H6        -432.9255  -281.7502   437.9232 H6            1 RES     
   12014 H6        -431.9444  -283.2372   438.1367 H6            1 RES     
   12015 H6        -433.4144  -282.9891   439.1516 H6            1 RES     
   12016 H6        -433.3617  -283.4293   436.0869 H6            1 RES     
   12017 H6        -433.7818  -284.6563   437.3336 H6            1 RES     
   12018 H6        -435.8229  -283.7877   436.3540 H6            1 RES     
   12019 H6        -435.7328  -283.2882   438.0814 H6            1 RES     
   12020 H6        -435.0508  -281.5554   435.6117 H6            1 RES     
   12021 H6        -434.9646  -280.9714   437.3203 H6            1 RES     
   12022 H6        -437.4751  -282.0506   435.9428 H6            1 RES     
   12023 H6        -437.4078  -281.3655   437.6150 H6            1 RES     
   12024 H6        -436.6499  -279.1349   436.6164 H6            1 RES     
   12025 H6        -436.7508  -279.8843   434.9864 H6            1 RES     
   12026 H6        -439.1323  -279.2680   436.8770 H6            1 RES     
   12027 H6        -438.6887  -278.5079   435.3017 H6            1 RES     
   12028 H6        -439.6114  -281.3886   435.8422 H6            1 RES     
   12029 H6        -438.8894  -280.9009   434.2998 H6            1 RES     
   12030 H6        -441.1919  -281.0074   434.1638 H6            1 RES     
   12031 H6        -441.7650  -279.0766   436.3340 H6            1 RES     
   12032 H6        -442.9291  -279.4029   434.9893 H6            1 RES     
   12033 H6        -442.8436  -281.7487   435.2567 H6            1 RES     
   12034 H6        -441.6217  -281.6056   436.6302 H6            1 RES     
   12035 H6        -444.6384  -281.1241   436.6617 H6            1 RES     
   12036 H6        -443.5161  -280.9423   438.0792 H6            1 RES     
   12037 H6        -443.7380  -283.5240   436.3224 H6            1 RES     
   12038 H6        -442.6735  -283.2809   437.7438 H6            1 RES     
   12039 H6        -444.6782  -283.1441   439.2276 H6            1 RES     
   12040 H6        -444.4442  -284.7014   438.3542 H6            1 RES     
   12041 H6        -446.1363  -284.1113   436.6610 H6            1 RES     
   12042 H6        -446.4643  -282.5452   437.5163 H6            1 RES     
   12043 H6        -446.8076  -284.1234   438.3298 H6            1 RES     
   12044 H6        -439.7412  -279.5134   432.7803 H6            1 RES     
   12045 H6        -440.8328  -278.2917   433.4919 H6            1 RES     
   12046 H6        -441.5965  -277.8190   431.5720 H6            1 RES     
   12047 H6        -441.3853  -278.8095   430.1774 H6            1 RES     
   12048 H6        -444.0476  -278.4894   431.7554 H6            1 RES     
   12049 H6        -444.0284  -280.1920   429.9439 H6            1 RES     
   12050 H6        -445.3088  -278.9527   429.8040 H6            1 RES     
   12051 H6        -444.1744  -277.7730   427.9810 H6            1 RES     
   12052 H6        -442.7139  -278.7590   428.1812 H6            1 RES     
   12053 H6        -443.8215  -279.6216   426.2649 H6            1 RES     
   12054 H6        -444.0371  -280.8280   427.5475 H6            1 RES     
   12055 H6        -446.3759  -280.0201   427.9509 H6            1 RES     
   12056 H6        -446.0853  -280.6219   426.2885 H6            1 RES     
   12057 H6        -446.2612  -277.6455   427.1106 H6            1 RES     
   12058 H6        -447.4968  -278.6214   426.2543 H6            1 RES     
   12059 H6        -445.9151  -278.9608   424.3276 H6            1 RES     
   12060 H6        -446.2720  -277.2207   424.6454 H6            1 RES     
   12061 H6        -444.6989  -277.9033   425.1546 H6            1 RES     
   12062 H6        -443.5231  -276.2350   431.5825 H6            1 RES     
   12063 H6        -444.6938  -276.5322   430.2666 H6            1 RES     
   12064 H6        -442.5644  -276.5564   428.6824 H6            1 RES     
   12065 H6        -441.6185  -276.0698   430.0962 H6            1 RES     
   12066 H6        -442.2025  -274.2389   428.5812 H6            1 RES     
   12067 H6        -443.9627  -274.5479   428.7676 H6            1 RES     
   12068 H6        -442.0611  -273.6326   431.0425 H6            1 RES     
   12069 H6        -443.8346  -273.9241   431.1740 H6            1 RES     
   12070 H6        -444.2747  -272.0995   429.5035 H6            1 RES     
   12071 H6        -443.4445  -271.5495   431.0023 H6            1 RES     
   12072 H6        -442.0448  -272.0759   428.3013 H6            1 RES     
   12073 H6        -441.2373  -271.5244   429.8122 H6            1 RES     
   12074 H6        -441.6344  -269.7105   428.1569 H6            1 RES     
   12075 H6        -443.4073  -270.0110   428.1979 H6            1 RES     
   12076 H6        -443.4496  -269.3043   430.6173 H6            1 RES     
   12077 H6        -442.7360  -268.0374   429.5664 H6            1 RES     
   12078 H6        -441.6519  -269.0713   430.5690 H6            1 RES     
   12079 C0        -438.4784  -286.5222   442.9893 C0            1 RES     
   12080 C0        -437.7893  -287.9043   443.3326 C0            1 RES     
   12081 C0        -437.1082  -288.3841   442.2651 C0            1 RES     
   12082 S1        -436.3113  -289.8325   442.5546 S1            1 RES     
   12083 C0        -436.8295  -289.9115   444.1709 C0            1 RES     
   12084 C0        -437.6894  -288.8291   444.4064 C0            1 RES     
   12085 C0        -437.3268  -287.5450   441.1460 C0            1 RES     
   12086 C0        -438.0887  -286.5376   441.5070 C0            1 RES     
   12087 C0        -438.5081  -285.7758   440.3642 C0            1 RES     
   12088 C0        -438.0150  -286.3093   439.1873 C0            1 RES     
   12089 S1        -436.9392  -287.7360   439.4156 S1            1 RES     
   12090 H2        -438.1705  -288.7228   445.3441 H2            1 RES     
   12091 H2        -439.2144  -285.0015   440.4067 H2            1 RES     
   12092 N3        -436.1944  -291.5230   447.5535 N3            1 RES     
   12093 C0        -436.6662  -290.6914   446.5826 C0            1 RES     
   12094 C0        -436.3708  -290.9010   445.2093 C0            1 RES     
   12095 C0        -435.5735  -292.0261   444.9075 C0            1 RES     
   12096 N3        -435.1938  -292.3907   443.6552 N3            1 RES     
   12097 S1        -434.2985  -293.7499   443.9324 S1            1 RES     
   12098 N3        -434.3395  -293.9272   445.5709 N3            1 RES     
   12099 C0        -435.1033  -292.8706   445.9557 C0            1 RES     
   12100 C0        -435.4208  -292.6009   447.2754 C0            1 RES     
   12101 H4        -437.2447  -289.8504   446.9046 H4            1 RES     
   12102 C5        -429.4056  -290.9037   447.2741 C5            1 RES     
   12103 C5        -430.5237  -291.2112   446.2781 C5            1 RES     
   12104 C5        -431.8549  -290.5275   446.6340 C5            1 RES     
   12105 C5        -431.7970  -288.9915   446.5424 C5            1 RES     
   12106 C5        -433.1646  -288.3714   446.8674 C5            1 RES     
   12107 C5        -433.1598  -286.8445   446.6345 C5            1 RES     
   12108 C5        -434.5197  -286.1402   446.8853 C5            1 RES     
   12109 C5        -435.6448  -286.8492   446.1293 C5            1 RES     
   12110 C5        -436.9733  -286.0802   445.9180 C5            1 RES     
   12111 C5        -437.9154  -285.8108   447.1543 C5            1 RES     
   12112 C5        -438.5557  -287.1769   447.5268 C5            1 RES     
   12113 C5        -439.5937  -287.4682   448.6170 C5            1 RES     
   12114 C5        -439.8794  -289.0009   448.4896 C5            1 RES     
   12115 C5        -440.8902  -289.6259   449.4495 C5            1 RES     
   12116 C5        -442.3263  -289.2045   449.1638 C5            1 RES     
   12117 C5        -436.8851  -285.0698   444.7650 C5            1 RES     
   12118 C0        -438.1406  -285.1253   443.8013 C0            1 RES     
   12119 C5        -438.2881  -283.7200   443.0732 C5            1 RES     
   12120 C5        -439.6645  -282.9754   443.1821 C5            1 RES     
   12121 C5        -440.7040  -283.3864   442.0995 C5            1 RES     
   12122 C5        -440.4637  -282.7859   440.6940 C5            1 RES     
   12123 C5        -441.3322  -283.4298   439.5954 C5            1 RES     
   12124 C5        -442.8317  -283.1009   439.6641 C5            1 RES     
   12125 C5        -443.1737  -281.6114   439.4662 C5            1 RES     
   12126 C5        -442.6944  -281.0555   438.1215 C5            1 RES     
   12127 C5        -439.5203  -281.4101   443.3207 C5            1 RES     
   12128 C5        -438.5305  -280.7001   442.3562 C5            1 RES     
   12129 C5        -438.6065  -279.1569   442.3804 C5            1 RES     
   12130 C5        -438.2626  -278.5043   443.7342 C5            1 RES     
   12131 C5        -438.2957  -276.9569   443.6849 C5            1 RES     
   12132 C5        -437.1898  -276.3425   442.7987 C5            1 RES     
   12133 C5        -437.2220  -274.8036   442.7334 C5            1 RES     
   12134 C5        -436.9454  -274.1206   444.0728 C5            1 RES     
   12135 H6        -429.1535  -289.8242   447.2756 H6            1 RES     
   12136 H6        -428.4923  -291.4675   446.9896 H6            1 RES     
   12137 H6        -429.7090  -291.2142   448.2966 H6            1 RES     
   12138 H6        -430.2048  -290.9160   445.2545 H6            1 RES     
   12139 H6        -430.6886  -292.3109   446.2824 H6            1 RES     
   12140 H6        -432.6187  -290.8908   445.9103 H6            1 RES     
   12141 H6        -432.1697  -290.8397   447.6531 H6            1 RES     
   12142 H6        -431.5057  -288.7168   445.5038 H6            1 RES     
   12143 H6        -431.0453  -288.5799   447.2465 H6            1 RES     
   12144 H6        -433.9037  -288.8441   446.1861 H6            1 RES     
   12145 H6        -433.4452  -288.5986   447.9181 H6            1 RES     
   12146 H6        -432.3842  -286.3629   447.2679 H6            1 RES     
   12147 H6        -432.8825  -286.6740   445.5698 H6            1 RES     
   12148 H6        -434.7714  -286.1172   447.9673 H6            1 RES     
   12149 H6        -434.4132  -285.0944   446.5245 H6            1 RES     
   12150 H6        -435.8399  -287.8136   446.6342 H6            1 RES     
   12151 H6        -435.2664  -287.1077   445.1141 H6            1 RES     
   12152 H6        -437.5326  -286.7740   445.4036 H6            1 RES     
   12153 H6        -437.3530  -285.3444   447.9902 H6            1 RES     
   12154 H6        -438.7454  -285.1328   446.8561 H6            1 RES     
   12155 H6        -439.1247  -287.4526   446.6190 H6            1 RES     
   12156 H6        -437.7113  -287.8562   447.7323 H6            1 RES     
   12157 H6        -440.5169  -286.8753   448.4394 H6            1 RES     
   12158 H6        -439.1848  -287.2349   449.6219 H6            1 RES     
   12159 H6        -440.2103  -289.2454   447.4524 H6            1 RES     
   12160 H6        -438.9205  -289.5372   448.6623 H6            1 RES     
   12161 H6        -440.6079  -289.4080   450.4994 H6            1 RES     
   12162 H6        -440.8438  -290.7294   449.2990 H6            1 RES     
   12163 H6        -442.6018  -289.4670   448.1182 H6            1 RES     
   12164 H6        -442.4575  -288.1165   449.3210 H6            1 RES     
   12165 H6        -443.0061  -289.7575   449.8467 H6            1 RES     
   12166 H6        -436.0168  -285.2719   444.1011 H6            1 RES     
   12167 H6        -436.7048  -284.0825   445.2424 H6            1 RES     
   12168 H6        -437.6248  -283.0410   443.6418 H6            1 RES     
   12169 H6        -437.8386  -283.6931   442.0608 H6            1 RES     
   12170 H6        -440.1079  -283.2960   444.1519 H6            1 RES     
   12171 H6        -440.7208  -284.4957   442.0625 H6            1 RES     
   12172 H6        -441.7131  -283.0542   442.4260 H6            1 RES     
   12173 H6        -440.6348  -281.6926   440.6983 H6            1 RES     
   12174 H6        -439.4056  -282.9380   440.4095 H6            1 RES     
   12175 H6        -440.9425  -283.1130   438.6067 H6            1 RES     
   12176 H6        -441.2190  -284.5326   439.6340 H6            1 RES     
   12177 H6        -443.2453  -283.4470   440.6345 H6            1 RES     
   12178 H6        -443.3389  -283.6780   438.8602 H6            1 RES     
   12179 H6        -442.7513  -280.9987   440.2890 H6            1 RES     
   12180 H6        -444.2794  -281.5113   439.5053 H6            1 RES     
   12181 H6        -443.1091  -281.6549   437.2830 H6            1 RES     
   12182 H6        -443.0351  -280.0052   438.0108 H6            1 RES     
   12183 H6        -441.5866  -281.0539   438.0588 H6            1 RES     
   12184 H6        -439.1453  -281.1928   444.3441 H6            1 RES     
   12185 H6        -440.5336  -280.9591   443.2448 H6            1 RES     
   12186 H6        -438.7165  -280.9787   441.3104 H6            1 RES     
   12187 H6        -437.4902  -281.0154   442.5853 H6            1 RES     
   12188 H6        -437.8867  -278.8038   441.6154 H6            1 RES     
   12189 H6        -439.6250  -278.8352   442.0693 H6            1 RES     
   12190 H6        -437.2571  -278.8339   444.0747 H6            1 RES     
   12191 H6        -439.0126  -278.8332   444.4819 H6            1 RES     
   12192 H6        -439.2944  -276.6159   443.3340 H6            1 RES     
   12193 H6        -438.1537  -276.5918   444.7256 H6            1 RES     
   12194 H6        -437.3135  -276.6983   441.7567 H6            1 RES     
   12195 H6        -436.1928  -276.6717   443.1646 H6            1 RES     
   12196 H6        -436.4330  -274.4758   442.0207 H6            1 RES     
   12197 H6        -438.2033  -274.4622   442.3391 H6            1 RES     
   12198 H6        -437.7358  -274.3543   444.8139 H6            1 RES     
   12199 H6        -436.9311  -273.0191   443.9258 H6            1 RES     
   12200 H6        -435.9570  -274.4350   444.4700 H6            1 RES     
   12201 C0        -434.7873  -294.6148   452.2337 C0            1 RES     
   12202 C0        -434.3665  -296.1376   452.1497 C0            1 RES     
   12203 C0        -433.9690  -296.4617   450.8965 C0            1 RES     
   12204 S1        -433.4663  -298.0539   450.7267 S1            1 RES     
   12205 C0        -433.7448  -298.4226   452.3619 C0            1 RES     
   12206 C0        -434.3091  -297.2938   452.9733 C0            1 RES     
   12207 C0        -434.1661  -295.3558   450.0349 C0            1 RES     
   12208 C0        -434.6332  -294.3456   450.7327 C0            1 RES     
   12209 C0        -435.0442  -293.2729   449.8710 C0            1 RES     
   12210 C0        -434.8559  -293.5893   448.5379 C0            1 RES     
   12211 S1        -434.0882  -295.1951   448.2602 S1            1 RES     
   12212 H2        -434.6125  -297.3307   453.9875 H2            1 RES     
   12213 H2        -435.5545  -292.4195   450.2049 H2            1 RES     
   12214 N3        -432.9762  -300.8771   455.1596 N3            1 RES     
   12215 C0        -433.3975  -299.7692   454.4873 C0            1 RES     
   12216 C0        -433.3599  -299.6950   453.0694 C0            1 RES     
   12217 C0        -432.8749  -300.8379   452.3977 C0            1 RES     
   12218 N3        -432.7712  -300.9553   451.0484 N3            1 RES     
   12219 S1        -432.1562  -302.4766   450.8660 S1            1 RES     
   12220 N3        -431.9916  -303.0280   452.4109 N3            1 RES     
   12221 C0        -432.4466  -301.9762   453.1419 C0            1 RES     
   12222 C0        -432.5007  -301.9764   454.5248 C0            1 RES     
   12223 H4        -433.7289  -298.9409   455.0786 H4            1 RES     
   12224 C5        -426.3295  -301.4077   453.7147 C5            1 RES     
   12225 C5        -427.6220  -301.2691   452.9105 C5            1 RES     
   12226 C5        -428.7088  -300.4673   453.6467 C5            1 RES     
   12227 C5        -428.3382  -298.9882   453.8603 C5            1 RES     
   12228 C5        -429.4783  -298.2334   454.5610 C5            1 RES     
   12229 C5        -429.1817  -296.7200   454.6472 C5            1 RES     
   12230 C5        -430.3075  -295.8685   455.2923 C5            1 RES     
   12231 C5        -431.6571  -296.1693   454.6381 C5            1 RES     
   12232 C5        -432.8068  -295.1518   454.8466 C5            1 RES     
   12233 C5        -433.4765  -295.0231   456.2691 C5            1 RES     
   12234 C5        -434.3316  -296.3047   456.4716 C5            1 RES     
   12235 C5        -435.2352  -296.6602   457.6582 C5            1 RES     
   12236 C5        -435.8575  -298.0444   457.2787 C5            1 RES     
   12237 C5        -436.8254  -298.6926   458.2671 C5            1 RES     
   12238 C5        -438.1643  -297.9706   458.3542 C5            1 RES     
   12239 C5        -432.6761  -293.9279   453.9284 C5            1 RES     
   12240 C0        -434.0427  -293.5322   453.2328 C0            1 RES     
   12241 C5        -433.9924  -291.9907   452.8481 C5            1 RES     
   12242 C5        -435.1463  -291.0641   453.3683 C5            1 RES     
   12243 C5        -436.3978  -291.0176   452.4447 C5            1 RES     
   12244 C5        -436.2450  -290.1520   451.1715 C5            1 RES     
   12245 C5        -437.3835  -290.3542   450.1523 C5            1 RES     
   12246 C5        -438.7512  -289.7937   450.5730 C5            1 RES     
   12247 C5        -438.7923  -288.2636   450.7517 C5            1 RES     
   12248 C5        -438.4093  -287.4970   449.4819 C5            1 RES     
   12249 C5        -434.6520  -289.6267   453.7923 C5            1 RES     
   12250 C5        -433.6869  -288.8925   452.8208 C5            1 RES     
   12251 C5        -433.4270  -287.4105   453.1728 C5            1 RES     
   12252 C5        -432.7555  -287.1688   454.5393 C5            1 RES     
   12253 C5        -432.4641  -285.6728   454.8133 C5            1 RES     
   12254 C5        -431.3957  -285.0689   453.8753 C5            1 RES     
   12255 C5        -431.1075  -283.5773   454.1321 C5            1 RES     
   12256 C5        -430.4967  -283.2914   455.5039 C5            1 RES     
   12257 H6        -425.8551  -300.4209   453.8875 H6            1 RES     
   12258 H6        -425.6101  -302.0388   453.1516 H6            1 RES     
   12259 H6        -426.5378  -301.8941   454.6914 H6            1 RES     
   12260 H6        -427.4021  -300.7997   451.9266 H6            1 RES     
   12261 H6        -428.0155  -302.2920   452.7224 H6            1 RES     
   12262 H6        -429.6309  -300.5088   453.0246 H6            1 RES     
   12263 H6        -428.9290  -300.9526   454.6220 H6            1 RES     
   12264 H6        -428.1516  -298.5300   452.8632 H6            1 RES     
   12265 H6        -427.4203  -298.8937   454.4758 H6            1 RES     
   12266 H6        -430.3936  -298.3938   453.9524 H6            1 RES     
   12267 H6        -429.6427  -298.6509   455.5773 H6            1 RES     
   12268 H6        -428.2364  -296.5461   455.2046 H6            1 RES     
   12269 H6        -429.0349  -296.3527   453.6065 H6            1 RES     
   12270 H6        -430.3857  -296.0595   456.3841 H6            1 RES     
   12271 H6        -430.0344  -294.8023   455.1384 H6            1 RES     
   12272 H6        -431.9771  -297.1766   454.9640 H6            1 RES     
   12273 H6        -431.4968  -296.2414   453.5382 H6            1 RES     
   12274 H6        -433.5712  -295.5945   454.3189 H6            1 RES     
   12275 H6        -432.7102  -294.8745   457.0587 H6            1 RES     
   12276 H6        -434.1771  -294.1591   456.2802 H6            1 RES     
   12277 H6        -435.0741  -296.2529   455.6532 H6            1 RES     
   12278 H6        -433.6310  -297.1504   456.3687 H6            1 RES     
   12279 H6        -436.0263  -295.8899   457.7855 H6            1 RES     
   12280 H6        -434.6422  -296.7477   458.5920 H6            1 RES     
   12281 H6        -436.3825  -297.9737   456.2967 H6            1 RES     
   12282 H6        -435.0206  -298.7657   457.1514 H6            1 RES     
   12283 H6        -436.3512  -298.7832   459.2653 H6            1 RES     
   12284 H6        -437.0386  -299.7193   457.8891 H6            1 RES     
   12285 H6        -438.6409  -297.9248   457.3497 H6            1 RES     
   12286 H6        -438.0353  -296.9454   458.7517 H6            1 RES     
   12287 H6        -438.8381  -298.5422   459.0277 H6            1 RES     
   12288 H6        -431.9789  -294.1153   453.0833 H6            1 RES     
   12289 H6        -432.2205  -293.1296   454.5531 H6            1 RES     
   12290 H6        -433.1227  -291.5932   453.4049 H6            1 RES     
   12291 H6        -433.7020  -291.8032   451.7953 H6            1 RES     
   12292 H6        -435.4998  -291.5231   454.3192 H6            1 RES     
   12293 H6        -436.6566  -292.0657   452.1866 H6            1 RES     
   12294 H6        -437.2531  -290.6011   453.0195 H6            1 RES     
   12295 H6        -436.1760  -289.0785   451.4309 H6            1 RES     
   12296 H6        -435.2978  -290.4151   450.6643 H6            1 RES     
   12297 H6        -437.0856  -289.8849   449.1928 H6            1 RES     
   12298 H6        -437.5043  -291.4369   449.9431 H6            1 RES     
   12299 H6        -439.0812  -290.2824   451.5135 H6            1 RES     
   12300 H6        -439.4830  -290.0653   449.7810 H6            1 RES     
   12301 H6        -438.1320  -287.9476   451.5853 H6            1 RES     
   12302 H6        -439.8330  -287.9837   451.0218 H6            1 RES     
   12303 H6        -439.0618  -287.7979   448.6344 H6            1 RES     
   12304 H6        -438.5302  -286.4076   449.6547 H6            1 RES     
   12305 H6        -437.3485  -287.6745   449.2094 H6            1 RES     
   12306 H6        -434.0923  -289.7278   454.7471 H6            1 RES     
   12307 H6        -435.5454  -289.0003   454.0056 H6            1 RES     
   12308 H6        -434.0806  -288.8777   451.7958 H6            1 RES     
   12309 H6        -432.7159  -289.4303   452.7770 H6            1 RES     
   12310 H6        -432.7694  -287.0175   452.3721 H6            1 RES     
   12311 H6        -434.3877  -286.8508   453.1350 H6            1 RES     
   12312 H6        -431.8046  -287.7407   454.6063 H6            1 RES     
   12313 H6        -433.4395  -287.5293   455.3342 H6            1 RES     
   12314 H6        -433.4074  -285.0887   454.7375 H6            1 RES     
   12315 H6        -432.0952  -285.5960   455.8596 H6            1 RES     
   12316 H6        -431.7451  -285.1396   452.8262 H6            1 RES     
   12317 H6        -430.4492  -285.6449   453.9683 H6            1 RES     
   12318 H6        -430.3809  -283.2330   453.3631 H6            1 RES     
   12319 H6        -432.0404  -282.9857   454.0113 H6            1 RES     
   12320 H6        -431.2004  -283.5523   456.3195 H6            1 RES     
   12321 H6        -430.2692  -282.2066   455.5842 H6            1 RES     
   12322 H6        -429.5508  -283.8592   455.6316 H6            1 RES     
   12323 C0        -431.5869  -305.1893   458.7537 C0            1 RES     
   12324 C0        -431.5184  -306.6980   458.2824 C0            1 RES     
   12325 C0        -431.3889  -306.7796   456.9370 C0            1 RES     
   12326 S1        -431.2687  -308.3486   456.3534 S1            1 RES     
   12327 C0        -431.3750  -309.0405   457.9017 C0            1 RES     
   12328 C0        -431.5884  -308.0085   458.8268 C0            1 RES     
   12329 C0        -431.4702  -305.4838   456.3726 C0            1 RES     
   12330 C0        -431.6023  -304.6026   457.3378 C0            1 RES     
   12331 C0        -431.8972  -303.3010   456.8077 C0            1 RES     
   12332 C0        -431.9798  -303.3196   455.4273 C0            1 RES     
   12333 S1        -431.6227  -304.9223   454.6866 S1            1 RES     
   12334 H2        -431.7394  -308.2315   459.8512 H2            1 RES     
   12335 H2        -432.1583  -302.4755   457.4000 H2            1 RES     
   12336 N3        -430.7441  -312.1849   459.9407 N3            1 RES     
   12337 C0        -431.0135  -310.8929   459.6016 C0            1 RES     
   12338 C0        -431.1707  -310.4917   458.2482 C0            1 RES     
   12339 C0        -431.0458  -311.5091   457.2776 C0            1 RES     
   12340 N3        -431.1701  -311.3189   455.9383 N3            1 RES     
   12341 S1        -430.9282  -312.8368   455.3356 S1            1 RES     
   12342 N3        -430.6589  -313.7595   456.6750 N3            1 RES     
   12343 C0        -430.7655  -312.8485   457.6782 C0            1 RES     
   12344 C0        -430.6136  -313.1677   459.0162 C0            1 RES     
   12345 H4        -431.0691  -310.1839   460.4014 H4            1 RES     
   12346 C5        -424.6524  -313.5126   457.1701 C5            1 RES     
   12347 C5        -425.9897  -312.9627   456.6742 C5            1 RES     
   12348 C5        -426.7590  -312.1813   457.7527 C5            1 RES     
   12349 C5        -426.0536  -310.8836   458.1878 C5            1 RES     
   12350 C5        -426.8897  -310.1293   459.2328 C5            1 RES     
   12351 C5        -426.2672  -308.7557   459.5667 C5            1 RES     
   12352 C5        -427.0771  -307.8982   460.5754 C5            1 RES     
   12353 C5        -428.5412  -307.7939   460.1451 C5            1 RES     
   12354 C5        -429.4033  -306.6699   460.7730 C5            1 RES     
   12355 C5        -429.8123  -306.7676   462.2934 C5            1 RES     
   12356 C5        -430.8821  -307.8904   462.3910 C5            1 RES     
   12357 C5        -431.6553  -308.3538   463.6313 C5            1 RES     
   12358 C5        -432.6081  -309.4772   463.1047 C5            1 RES     
   12359 C5        -433.5353  -310.1619   464.1073 C5            1 RES     
   12360 C5        -434.6611  -309.2582   464.5948 C5            1 RES     
   12361 C5        -429.1511  -305.3053   460.1155 C5            1 RES     
   12362 C0        -430.4889  -304.5227   459.7903 C0            1 RES     
   12363 C5        -430.1677  -302.9673   459.7251 C5            1 RES     
   12364 C5        -431.0072  -302.0034   460.6345 C5            1 RES     
   12365 C5        -432.3422  -301.5205   459.9974 C5            1 RES     
   12366 C5        -432.1977  -300.4177   458.9219 C5            1 RES     
   12367 C5        -433.4909  -300.1695   458.1208 C5            1 RES     
   12368 C5        -434.6297  -299.4943   458.9011 C5            1 RES     
   12369 C5        -434.3161  -298.0677   459.3921 C5            1 RES     
   12370 C5        -433.9699  -297.1006   458.2554 C5            1 RES     
   12371 C5        -430.1601  -300.8173   461.2393 C5            1 RES     
   12372 C5        -429.2148  -300.0541   460.2709 C5            1 RES     
   12373 C5        -428.5950  -298.7672   460.8606 C5            1 RES     
   12374 C5        -427.6931  -298.9784   462.0929 C5            1 RES     
   12375 C5        -427.0515  -297.6652   462.6045 C5            1 RES     
   12376 C5        -426.0293  -297.0524   461.6219 C5            1 RES     
   12377 C5        -425.3944  -295.7388   462.1167 C5            1 RES     
   12378 C5        -424.5407  -295.8984   463.3747 C5            1 RES     
   12379 H6        -423.9578  -312.6938   457.4458 H6            1 RES     
   12380 H6        -424.1757  -314.1077   456.3629 H6            1 RES     
   12381 H6        -424.8132  -314.1728   458.0488 H6            1 RES     
   12382 H6        -425.8224  -312.3191   455.7829 H6            1 RES     
   12383 H6        -426.6161  -313.8265   456.3609 H6            1 RES     
   12384 H6        -427.7503  -311.9117   457.3239 H6            1 RES     
   12385 H6        -426.9314  -312.8380   458.6326 H6            1 RES     
   12386 H6        -425.9227  -310.2416   457.2878 H6            1 RES     
   12387 H6        -425.0561  -311.1003   458.6218 H6            1 RES     
   12388 H6        -427.8978  -309.9777   458.7916 H6            1 RES     
   12389 H6        -426.9875  -310.7408   460.1552 H6            1 RES     
   12390 H6        -425.2348  -308.8875   459.9558 H6            1 RES     
   12391 H6        -426.2006  -308.1832   458.6142 H6            1 RES     
   12392 H6        -427.0321  -308.3263   461.5998 H6            1 RES     
   12393 H6        -426.6082  -306.8907   460.5922 H6            1 RES     
   12394 H6        -429.0173  -308.7777   460.3143 H6            1 RES     
   12395 H6        -428.5643  -307.6296   459.0436 H6            1 RES     
   12396 H6        -430.3140  -306.8337   460.3229 H6            1 RES     
   12397 H6        -428.9239  -306.9474   462.9347 H6            1 RES     
   12398 H6        -430.3026  -305.8221   462.6143 H6            1 RES     
   12399 H6        -431.7089  -307.5165   461.7583 H6            1 RES     
   12400 H6        -430.4015  -308.7967   461.9856 H6            1 RES     
   12401 H6        -432.2358  -307.5096   464.0621 H6            1 RES     
   12402 H6        -430.9634  -308.7631   464.3962 H6            1 RES     
   12403 H6        -433.2451  -309.0845   462.2770 H6            1 RES     
   12404 H6        -431.9729  -310.2827   462.6750 H6            1 RES     
   12405 H6        -432.9493  -310.5686   464.9563 H6            1 RES     
   12406 H6        -434.0165  -311.0157   463.5764 H6            1 RES     
   12407 H6        -435.2599  -308.8924   463.7312 H6            1 RES     
   12408 H6        -434.2587  -308.3958   465.1604 H6            1 RES     
   12409 H6        -435.3345  -309.8464   465.2544 H6            1 RES     
   12410 H6        -428.6427  -305.4057   459.1321 H6            1 RES     
   12411 H6        -428.4482  -304.7707   460.7903 H6            1 RES     
   12412 H6        -429.1608  -302.8720   460.1738 H6            1 RES     
   12413 H6        -430.0028  -302.5889   458.6968 H6            1 RES     
   12414 H6        -431.3062  -302.6060   461.5219 H6            1 RES     
   12415 H6        -432.8542  -302.4153   459.5860 H6            1 RES     
   12416 H6        -432.9942  -301.1092   460.7982 H6            1 RES     
   12417 H6        -431.8634  -299.4657   459.3763 H6            1 RES     
   12418 H6        -431.4142  -300.7145   458.1997 H6            1 RES     
   12419 H6        -433.2447  -299.5453   457.2378 H6            1 RES     
   12420 H6        -433.8698  -301.1331   457.7227 H6            1 RES     
   12421 H6        -434.9140  -300.1269   459.7680 H6            1 RES     
   12422 H6        -435.5114  -299.4375   458.2259 H6            1 RES     
   12423 H6        -433.4877  -298.0794   460.1300 H6            1 RES     
   12424 H6        -435.2213  -297.6822   459.9080 H6            1 RES     
   12425 H6        -434.7895  -297.0725   457.5057 H6            1 RES     
   12426 H6        -433.8283  -296.0796   458.6663 H6            1 RES     
   12427 H6        -433.0237  -297.3913   457.7542 H6            1 RES     
   12428 H6        -429.5002  -301.2388   462.0280 H6            1 RES     
   12429 H6        -430.8574  -300.1131   461.7431 H6            1 RES     
   12430 H6        -429.7431  -299.7275   459.3653 H6            1 RES     
   12431 H6        -428.3985  -300.7275   459.9330 H6            1 RES     
   12432 H6        -427.9943  -298.3166   460.0457 H6            1 RES     
   12433 H6        -429.4087  -298.0552   461.1225 H6            1 RES     
   12434 H6        -426.8872  -299.7073   461.8583 H6            1 RES     
   12435 H6        -428.3133  -299.3919   462.9139 H6            1 RES     
   12436 H6        -427.8488  -296.9239   462.8316 H6            1 RES     
   12437 H6        -426.5244  -297.9050   463.5538 H6            1 RES     
   12438 H6        -426.5368  -296.8096   460.6673 H6            1 RES     
   12439 H6        -425.2247  -297.7906   461.4123 H6            1 RES     
   12440 H6        -424.7327  -295.3543   461.3091 H6            1 RES     
   12441 H6        -426.1866  -294.9814   462.3001 H6            1 RES     
   12442 H6        -425.1556  -296.2182   464.2397 H6            1 RES     
   12443 H6        -424.0774  -294.9208   463.6290 H6            1 RES     
   12444 H6        -423.7298  -296.6369   463.2003 H6            1 RES     
   12445 C0        -429.7931  -317.4022   462.2470 C0            1 RES     
   12446 C0        -430.1190  -318.7437   461.4743 C0            1 RES     
   12447 C0        -430.2101  -318.5247   460.1412 C0            1 RES     
   12448 S1        -430.5156  -319.9062   459.2385 S1            1 RES     
   12449 C0        -430.5373  -320.9165   460.6046 C0            1 RES     
   12450 C0        -430.3862  -320.1128   461.7437 C0            1 RES     
   12451 C0        -430.0950  -317.1383   459.8787 C0            1 RES     
   12452 C0        -429.8918  -316.5025   461.0101 C0            1 RES     
   12453 C0        -429.9766  -315.0813   460.8226 C0            1 RES     
   12454 C0        -430.2643  -314.7567   459.5094 C0            1 RES     
   12455 S1        -430.3714  -316.1746   458.4035 S1            1 RES     
   12456 H2        -430.4284  -320.5428   462.7108 H2            1 RES     
   12457 H2        -429.9650  -314.3876   461.6093 H2            1 RES     
   12458 N3        -430.2989  -324.5157   461.8011 N3            1 RES     
   12459 C0        -430.3331  -323.1535   461.7902 C0            1 RES     
   12460 C0        -430.5990  -322.4212   460.6026 C0            1 RES     
   12461 C0        -430.8392  -323.1845   459.4398 C0            1 RES     
   12462 N3        -431.1163  -322.6629   458.2165 N3            1 RES     
   12463 S1        -431.2962  -324.0124   457.2825 S1            1 RES     
   12464 N3        -431.0355  -325.2593   458.3289 N3            1 RES     
   12465 C0        -430.7956  -324.6085   459.4980 C0            1 RES     
   12466 C0        -430.5194  -325.2579   460.6885 C0            1 RES     
   12467 H4        -430.1171  -322.6563   462.7131 H4            1 RES     
   12468 C5        -425.1092  -326.1928   457.7020 C5            1 RES     
   12469 C5        -426.3564  -325.3155   457.5943 C5            1 RES     
   12470 C5        -426.7730  -324.6903   458.9365 C5            1 RES     
   12471 C5        -425.7502  -323.6773   459.4830 C5            1 RES     
   12472 C5        -426.2421  -323.0584   460.8003 C5            1 RES     
   12473 C5        -425.2981  -321.9343   461.2809 C5            1 RES     
   12474 C5        -425.7479  -321.2129   462.5793 C5            1 RES     
   12475 C5        -427.2031  -320.7545   462.4683 C5            1 RES     
   12476 C5        -427.7026  -319.6788   463.4654 C5            1 RES     
   12477 C5        -427.8939  -320.0617   464.9837 C5            1 RES     
   12478 C5        -429.1525  -320.9704   465.0542 C5            1 RES     
   12479 C5        -429.8151  -321.5724   466.2990 C5            1 RES     
   12480 C5        -431.0530  -322.3538   465.7475 C5            1 RES     
   12481 C5        -431.9466  -323.0838   466.7488 C5            1 RES     
   12482 C5        -432.7686  -322.1391   467.6167 C5            1 RES     
   12483 C5        -427.2646  -318.2630   463.0634 C5            1 RES     
   12484 C0        -428.4373  -317.2037   463.1673 C0            1 RES     
   12485 C5        -427.8044  -315.7583   463.3596 C5            1 RES     
   12486 C5        -428.2747  -314.9064   464.5900 C5            1 RES     
   12487 C5        -429.5548  -314.0599   464.3328 C5            1 RES     
   12488 C5        -429.3385  -312.7760   463.4969 C5            1 RES     
   12489 C5        -430.6525  -312.1221   463.0264 C5            1 RES     
   12490 C5        -431.4927  -311.4630   464.1316 C5            1 RES     
   12491 C5        -430.8125  -310.2714   464.8331 C5            1 RES     
   12492 C5        -430.4394  -309.1380   463.8723 C5            1 RES     
   12493 C5        -427.1139  -314.0651   465.2495 C5            1 RES     
   12494 C5        -426.1809  -313.2714   464.2937 C5            1 RES     
   12495 C5        -425.2204  -312.2904   465.0028 C5            1 RES     
   12496 C5        -424.2125  -312.9429   465.9699 C5            1 RES     
   12497 C5        -423.2368  -311.9221   466.6053 C5            1 RES     
   12498 C5        -422.2639  -311.2821   465.5904 C5            1 RES     
   12499 C5        -421.2969  -310.2557   466.2110 C5            1 RES     
   12500 C5        -420.3209  -310.8565   467.2225 C5            1 RES     
   12501 H6        -424.2229  -325.5975   458.0000 H6            1 RES     
   12502 H6        -424.8953  -326.6531   456.7144 H6            1 RES     
   12503 H6        -425.2759  -327.0042   458.4420 H6            1 RES     
   12504 H6        -426.1889  -324.5180   456.8376 H6            1 RES     
   12505 H6        -427.1921  -325.9566   457.2380 H6            1 RES     
   12506 H6        -427.7360  -324.1573   458.7699 H6            1 RES     
   12507 H6        -426.9499  -325.4966   459.6806 H6            1 RES     
   12508 H6        -425.6196  -322.8731   458.7245 H6            1 RES     
   12509 H6        -424.7692  -324.1621   459.6641 H6            1 RES     
   12510 H6        -427.2484  -322.6322   460.6009 H6            1 RES     
   12511 H6        -426.3310  -323.8447   461.5801 H6            1 RES     
   12512 H6        -424.2718  -322.3334   461.4296 H6            1 RES     
   12513 H6        -425.2521  -321.1727   460.4701 H6            1 RES     
   12514 H6        -425.6448  -321.8731   463.4670 H6            1 RES     
   12515 H6        -425.0774  -320.3363   462.7105 H6            1 RES     
   12516 H6        -427.8481  -321.6514   462.5219 H6            1 RES     
   12517 H6        -427.3530  -320.3318   461.4487 H6            1 RES     
   12518 H6        -428.6836  -319.5689   463.1746 H6            1 RES     
   12519 H6        -426.9798  -320.5414   465.3923 H6            1 RES     
   12520 H6        -428.1180  -319.1487   465.5783 H6            1 RES     
   12521 H6        -429.9645  -320.3181   464.6814 H6            1 RES     
   12522 H6        -428.9419  -321.8242   464.3883 H6            1 RES     
   12523 H6        -430.1316  -320.7664   466.9958 H6            1 RES     
   12524 H6        -429.1214  -322.2663   466.8173 H6            1 RES     
   12525 H6        -431.7064  -321.6704   465.1551 H6            1 RES     
   12526 H6        -430.6752  -323.1326   465.0492 H6            1 RES     
   12527 H6        -431.3422  -323.7767   467.3686 H6            1 RES     
   12528 H6        -432.6721  -323.6892   466.1575 H6            1 RES     
   12529 H6        -433.3962  -321.4796   466.9769 H6            1 RES     
   12530 H6        -432.1122  -321.5198   468.2581 H6            1 RES     
   12531 H6        -433.4471  -322.7398   468.2595 H6            1 RES     
   12532 H6        -426.9403  -318.2143   462.0013 H6            1 RES     
   12533 H6        -426.3720  -318.0356   463.6852 H6            1 RES     
   12534 H6        -426.7453  -315.9502   463.6165 H6            1 RES     
   12535 H6        -427.7161  -315.1814   462.4177 H6            1 RES     
   12536 H6        -428.5611  -315.6406   465.3767 H6            1 RES     
   12537 H6        -430.3012  -314.7275   463.8539 H6            1 RES     
   12538 H6        -429.9783  -313.7430   465.3104 H6            1 RES     
   12539 H6        -428.7450  -312.0329   464.0627 H6            1 RES     
   12540 H6        -428.7519  -313.0252   462.5928 H6            1 RES     
   12541 H6        -430.4118  -311.3591   462.2586 H6            1 RES     
   12542 H6        -431.2831  -312.8819   462.5209 H6            1 RES     
   12543 H6        -431.7744  -312.2236   464.8896 H6            1 RES     
   12544 H6        -432.4317  -311.0939   463.6640 H6            1 RES     
   12545 H6        -429.9061  -310.6029   465.3802 H6            1 RES     
   12546 H6        -431.5280  -309.8672   465.5806 H6            1 RES     
   12547 H6        -431.3355  -308.7896   463.3155 H6            1 RES     
   12548 H6        -430.0238  -308.2849   464.4474 H6            1 RES     
   12549 H6        -429.6618  -309.4624   463.1503 H6            1 RES     
   12550 H6        -426.4502  -314.7707   465.7943 H6            1 RES     
   12551 H6        -427.5624  -313.3898   466.0103 H6            1 RES     
   12552 H6        -426.7551  -312.6517   463.5921 H6            1 RES     
   12553 H6        -425.5865  -313.9775   463.6756 H6            1 RES     
   12554 H6        -424.6644  -311.7715   464.1969 H6            1 RES     
   12555 H6        -425.8153  -311.5299   465.5554 H6            1 RES     
   12556 H6        -423.6247  -313.7247   465.4417 H6            1 RES     
   12557 H6        -424.7786  -313.4244   466.7930 H6            1 RES     
   12558 H6        -423.8148  -311.1281   467.1271 H6            1 RES     
   12559 H6        -422.6388  -312.4690   467.3667 H6            1 RES     
   12560 H6        -422.8431  -310.7345   464.8208 H6            1 RES     
   12561 H6        -421.6755  -312.0786   465.0846 H6            1 RES     
   12562 H6        -420.6951  -309.8124   465.3869 H6            1 RES     
   12563 H6        -421.8730  -309.4369   466.6933 H6            1 RES     
   12564 H6        -420.8552  -311.2599   468.1059 H6            1 RES     
   12565 H6        -419.6270  -310.0641   467.5767 H6            1 RES     
   12566 H6        -419.7214  -311.6627   466.7491 H6            1 RES     
   12567 C0        -430.1548  -330.2150   462.7710 C0            1 RES     
   12568 C0        -430.8703  -331.2561   461.8187 C0            1 RES     
   12569 C0        -431.1084  -330.7142   460.6008 C0            1 RES     
   12570 S1        -431.8320  -331.7663   459.5116 S1            1 RES     
   12571 C0        -431.8671  -333.0523   460.6217 C0            1 RES     
   12572 C0        -431.3812  -332.5815   461.8499 C0            1 RES     
   12573 C0        -430.7398  -329.3474   460.6088 C0            1 RES     
   12574 C0        -430.2406  -329.0443   461.7855 C0            1 RES     
   12575 C0        -430.0465  -327.6270   461.9111 C0            1 RES     
   12576 C0        -430.4489  -326.9545   460.7715 C0            1 RES     
   12577 S1        -431.0186  -328.0278   459.4418 S1            1 RES     
   12578 H2        -431.3710  -333.2147   462.6989 H2            1 RES     
   12579 H2        -429.7708  -327.1531   462.8053 H2            1 RES     
   12580 N3        -432.2293  -336.8172   460.9921 N3            1 RES     
   12581 C0        -431.9728  -335.5071   461.2654 C0            1 RES     
   12582 C0        -432.2485  -334.4787   460.3254 C0            1 RES     
   12583 C0        -432.8154  -334.8898   459.0997 C0            1 RES     
   12584 N3        -433.1522  -334.0522   458.0846 N3            1 RES     
   12585 S1        -433.7522  -335.0883   456.9477 S1            1 RES     
   12586 N3        -433.6124  -336.5739   457.6485 N3            1 RES     
   12587 C0        -433.0689  -336.2718   458.8574 C0            1 RES     
   12588 C0        -432.7652  -337.2235   459.8151 C0            1 RES     
   12589 H4        -431.5217  -335.2891   462.2112 H4            1 RES     
   12590 C5        -428.1817  -338.3546   455.7194 C5            1 RES     
   12591 C5        -429.2144  -337.2724   456.0340 C5            1 RES     
   12592 C5        -429.2849  -336.9209   457.5298 C5            1 RES     
   12593 C5        -428.0000  -336.2620   458.0643 C5            1 RES     
   12594 C5        -428.1481  -335.8974   459.5494 C5            1 RES     
   12595 C5        -426.9254  -335.1029   460.0585 C5            1 RES     
   12596 C5        -427.0138  -334.6432   461.5382 C5            1 RES     
   12597 C5        -428.3375  -333.9241   461.8042 C5            1 RES     
   12598 C5        -428.4427  -333.0457   463.0762 C5            1 RES     
   12599 C5        -428.4850  -333.7388   464.4927 C5            1 RES     
   12600 C5        -429.8841  -334.4033   464.6169 C5            1 RES     
   12601 C5        -430.4687  -335.1582   465.8166 C5            1 RES     
   12602 C5        -431.9126  -335.5570   465.3657 C5            1 RES     
   12603 C5        -432.7836  -336.3359   466.3499 C5            1 RES     
   12604 C5        -433.2473  -335.4955   467.5332 C5            1 RES     
   12605 C5        -427.7765  -331.6742   462.8944 C5            1 RES     
   12606 C0        -428.6672  -330.4814   463.4348 C0            1 RES     
   12607 C5        -427.7188  -329.2569   463.7921 C5            1 RES     
   12608 C5        -427.8092  -328.6529   465.2370 C5            1 RES     
   12609 C5        -428.9024  -327.5588   465.4081 C5            1 RES     
   12610 C5        -428.5426  -326.1714   464.8253 C5            1 RES     
   12611 C5        -429.7413  -325.2047   464.7589 C5            1 RES     
   12612 C5        -430.2485  -324.6904   466.1153 C5            1 RES     
   12613 C5        -429.2334  -323.8377   466.9008 C5            1 RES     
   12614 C5        -428.7729  -322.5918   466.1374 C5            1 RES     
   12615 C5        -426.4110  -328.2090   465.8187 C5            1 RES     
   12616 C5        -425.4817  -327.3869   464.8836 C5            1 RES     
   12617 C5        -424.2397  -326.7863   465.5797 C5            1 RES     
   12618 C5        -423.2631  -327.8159   466.1820 C5            1 RES     
   12619 C5        -422.0088  -327.1623   466.8126 C5            1 RES     
   12620 C5        -421.0825  -326.4802   465.7818 C5            1 RES     
   12621 C5        -419.8376  -325.8162   466.4010 C5            1 RES     
   12622 C5        -418.8741  -326.8015   467.0625 C5            1 RES     
   12623 H6        -427.1545  -338.0119   455.9566 H6            1 RES     
   12624 H6        -428.2193  -338.5973   454.6365 H6            1 RES     
   12625 H6        -428.4066  -339.2765   456.2968 H6            1 RES     
   12626 H6        -428.9940  -336.3600   455.4376 H6            1 RES     
   12627 H6        -430.2111  -337.6540   455.7217 H6            1 RES     
   12628 H6        -430.1255  -336.2034   457.6631 H6            1 RES     
   12629 H6        -429.5181  -337.8372   458.1140 H6            1 RES     
   12630 H6        -427.8140  -335.3363   457.4748 H6            1 RES     
   12631 H6        -427.1295  -336.9400   457.9513 H6            1 RES     
   12632 H6        -429.0583  -335.2666   459.6379 H6            1 RES     
   12633 H6        -428.2869  -336.8183   460.1551 H6            1 RES     
   12634 H6        -425.9977  -335.6993   459.9231 H6            1 RES     
   12635 H6        -426.8380  -334.1907   459.4263 H6            1 RES     
   12636 H6        -426.9242  -335.5030   462.2363 H6            1 RES     
   12637 H6        -426.1596  -333.9543   461.7139 H6            1 RES     
   12638 H6        -429.1441  -334.6808   461.7969 H6            1 RES     
   12639 H6        -428.5425  -333.2518   460.9401 H6            1 RES     
   12640 H6        -429.4094  -332.6999   463.0077 H6            1 RES     
   12641 H6        -427.6444  -334.4542   464.6120 H6            1 RES     
   12642 H6        -428.4184  -332.9684   465.2924 H6            1 RES     
   12643 H6        -430.5839  -333.5493   464.5476 H6            1 RES     
   12644 H6        -429.9616  -335.0978   463.7634 H6            1 RES     
   12645 H6        -430.4992  -334.4982   466.7105 H6            1 RES     
   12646 H6        -429.8706  -336.0658   466.0400 H6            1 RES     
   12647 H6        -432.4850  -334.6489   465.0614 H6            1 RES     
   12648 H6        -431.8174  -336.2014   464.4642 H6            1 RES     
   12649 H6        -432.2565  -337.2510   466.6879 H6            1 RES     
   12650 H6        -433.7009  -336.6468   465.7982 H6            1 RES     
   12651 H6        -433.8070  -334.6034   467.1736 H6            1 RES     
   12652 H6        -432.3864  -335.1711   468.1491 H6            1 RES     
   12653 H6        -433.9360  -336.1033   468.1582 H6            1 RES     
   12654 H6        -427.6099  -331.4322   461.8224 H6            1 RES     
   12655 H6        -426.7741  -331.7609   463.3664 H6            1 RES     
   12656 H6        -426.6991  -329.6867   463.7965 H6            1 RES     
   12657 H6        -427.6494  -328.4973   462.9883 H6            1 RES     
   12658 H6        -428.1265  -329.4911   465.8979 H6            1 RES     
   12659 H6        -429.8366  -327.9521   464.9556 H6            1 RES     
   12660 H6        -429.0992  -327.4141   466.4924 H6            1 RES     
   12661 H6        -427.7272  -325.6997   465.4059 H6            1 RES     
   12662 H6        -428.1630  -326.2975   463.7940 H6            1 RES     
   12663 H6        -429.4591  -324.3354   464.1308 H6            1 RES     
   12664 H6        -430.5873  -325.7002   464.2399 H6            1 RES     
   12665 H6        -430.5711  -325.5478   466.7423 H6            1 RES     
   12666 H6        -431.1455  -324.0623   465.9217 H6            1 RES     
   12667 H6        -428.3481  -324.4431   467.1847 H6            1 RES     
   12668 H6        -429.7275  -323.5037   467.8381 H6            1 RES     
   12669 H6        -429.6460  -321.9697   465.8457 H6            1 RES     
   12670 H6        -428.1042  -321.9861   466.7834 H6            1 RES     
   12671 H6        -428.1979  -322.8664   465.2290 H6            1 RES     
   12672 H6        -425.8404  -329.1288   466.0708 H6            1 RES     
   12673 H6        -426.5874  -327.6659   466.7727 H6            1 RES     
   12674 H6        -426.0073  -326.5276   464.4463 H6            1 RES     
   12675 H6        -425.1498  -328.0188   464.0324 H6            1 RES     
   12676 H6        -423.7109  -326.1964   464.8049 H6            1 RES     
   12677 H6        -424.5701  -326.0867   466.3792 H6            1 RES     
   12678 H6        -422.9405  -328.5403   465.4030 H6            1 RES     
   12679 H6        -423.7910  -328.3724   466.9829 H6            1 RES     
   12680 H6        -422.3202  -326.4265   467.5861 H6            1 RES     
   12681 H6        -421.4357  -327.9705   467.3176 H6            1 RES     
   12682 H6        -421.6384  -325.6727   465.2654 H6            1 RES     
   12683 H6        -420.7592  -327.2240   465.0211 H6            1 RES     
   12684 H6        -419.2835  -325.3023   465.5845 H6            1 RES     
   12685 H6        -420.1478  -325.0476   467.1412 H6            1 RES     
   12686 H6        -419.3458  -327.3032   467.9310 H6            1 RES     
   12687 H6        -417.9824  -326.2499   467.4307 H6            1 RES     
   12688 H6        -418.5374  -327.5643   466.3289 H6            1 RES     
   12689 C0        -433.1649  -342.5183   460.7357 C0            1 RES     
   12690 C0        -434.2190  -343.1615   459.7467 C0            1 RES     
   12691 C0        -434.5129  -342.3128   458.7334 C0            1 RES     
   12692 S1        -435.5974  -342.9326   457.6124 S1            1 RES     
   12693 C0        -435.7422  -344.4188   458.4232 C0            1 RES     
   12694 C0        -434.9909  -344.3458   459.6050 C0            1 RES     
   12695 C0        -433.8637  -341.0733   458.9486 C0            1 RES     
   12696 C0        -433.1430  -341.1506   460.0442 C0            1 RES     
   12697 C0        -432.6342  -339.8602   460.4160 C0            1 RES     
   12698 C0        -433.0474  -338.8765   459.5360 C0            1 RES     
   12699 S1        -434.0233  -339.4864   458.1502 S1            1 RES     
   12700 H2        -434.9910  -345.1543   460.2893 H2            1 RES     
   12701 H2        -432.1346  -339.6681   461.3181 H2            1 RES     
   12702 N3        -436.8417  -348.0406   458.0821 N3            1 RES     
   12703 C0        -436.2737  -346.8987   458.5619 C0            1 RES     
   12704 C0        -436.4591  -345.6445   457.9216 C0            1 RES     
   12705 C0        -437.2753  -345.6469   456.7699 C0            1 RES     
   12706 N3        -437.5715  -344.5465   456.0305 N3            1 RES     
   12707 S1        -438.5403  -345.1613   454.8432 S1            1 RES     
   12708 N3        -438.6192  -346.7716   455.1869 N3            1 RES     
   12709 C0        -437.8513  -346.8653   456.3047 C0            1 RES     
   12710 C0        -437.6199  -348.0553   456.9722 C0            1 RES     
   12711 H4        -435.6518  -346.9941   459.4278 H4            1 RES     
   12712 C5        -434.0404  -348.9657   451.9303 C5            1 RES     
   12713 C5        -434.7599  -347.8256   452.6507 C5            1 RES     
   12714 C5        -434.5320  -347.8328   454.1719 C5            1 RES     
   12715 C5        -433.0714  -347.5552   454.5726 C5            1 RES     
   12716 C5        -432.9172  -347.5337   456.1010 C5            1 RES     
   12717 C5        -431.4914  -347.1096   456.5169 C5            1 RES     
   12718 C5        -431.2601  -347.0064   458.0481 C5            1 RES     
   12719 C5        -432.3454  -346.1508   458.7038 C5            1 RES     
   12720 C5        -432.0713  -345.5952   460.1240 C5            1 RES     
   12721 C5        -432.0511  -346.5865   461.3510 C5            1 RES     
   12722 C5        -433.5259  -347.0060   461.6035 C5            1 RES     
   12723 C5        -434.0745  -347.9098   462.7139 C5            1 RES     
   12724 C5        -435.6206  -347.9310   462.4768 C5            1 RES     
   12725 C5        -436.4828  -348.7564   463.4303 C5            1 RES     
   12726 C5        -436.5762  -348.1533   464.8264 C5            1 RES     
   12727 C5        -431.1618  -344.3582   460.1008 C5            1 RES     
   12728 C0        -431.6872  -343.1909   461.0333 C0            1 RES     
   12729 C5        -430.4569  -342.2720   461.4436 C5            1 RES     
   12730 C5        -430.2017  -342.0223   462.9711 C5            1 RES     
   12731 C5        -430.9983  -340.8261   463.5677 C5            1 RES     
   12732 C5        -430.4404  -339.4251   463.2216 C5            1 RES     
   12733 C5        -431.4012  -338.2758   463.5846 C5            1 RES     
   12734 C5        -431.5808  -338.0177   465.0888 C5            1 RES     
   12735 C5        -430.3022  -337.5674   465.8218 C5            1 RES     
   12736 C5        -429.7041  -336.2763   465.2540 C5            1 RES     
   12737 C5        -428.6708  -341.9812   463.3516 C5            1 RES     
   12738 C5        -427.7357  -341.1363   462.4428 C5            1 RES     
   12739 C5        -426.3052  -340.9453   462.9951 C5            1 RES     
   12740 C5        -425.4932  -342.2432   463.1764 C5            1 RES     
   12741 C5        -424.0492  -341.9881   463.6741 C5            1 RES     
   12742 C5        -423.1611  -341.2537   462.6455 C5            1 RES     
   12743 C5        -421.7257  -340.9843   463.1363 C5            1 RES     
   12744 C5        -420.9081  -342.2516   463.3860 C5            1 RES     
   12745 H6        -432.9402  -348.8745   452.0307 H6            1 RES     
   12746 H6        -434.2886  -348.9338   450.8484 H6            1 RES     
   12747 H6        -434.3694  -349.9444   452.3401 H6            1 RES     
   12748 H6        -434.4403  -346.8508   452.2216 H6            1 RES     
   12749 H6        -435.8501  -347.9415   452.4645 H6            1 RES     
   12750 H6        -435.1707  -347.0318   454.6072 H6            1 RES     
   12751 H6        -434.8667  -348.8062   454.5910 H6            1 RES     
   12752 H6        -432.7811  -346.5632   454.1593 H6            1 RES     
   12753 H6        -432.3924  -348.3286   454.1591 H6            1 RES     
   12754 H6        -433.6482  -346.7927   456.4890 H6            1 RES     
   12755 H6        -433.1585  -348.5332   456.5218 H6            1 RES     
   12756 H6        -430.7430  -347.8097   456.0875 H6            1 RES     
   12757 H6        -431.3055  -346.1032   456.0788 H6            1 RES     
   12758 H6        -431.2541  -348.0095   458.5261 H6            1 RES     
   12759 H6        -430.2620  -346.5395   458.1931 H6            1 RES     
   12760 H6        -433.2870  -346.7308   458.6975 H6            1 RES     
   12761 H6        -432.5273  -345.2672   458.0503 H6            1 RES     
   12762 H6        -432.9411  -345.0793   460.3141 H6            1 RES     
   12763 H6        -431.3746  -347.4456   461.1586 H6            1 RES     
   12764 H6        -431.7040  -346.0521   462.2628 H6            1 RES     
   12765 H6        -434.0293  -346.0510   461.8451 H6            1 RES     
   12766 H6        -433.8752  -347.4532   460.6576 H6            1 RES     
   12767 H6        -433.8309  -347.4862   463.7122 H6            1 RES     
   12768 H6        -433.6579  -348.9348   462.6287 H6            1 RES     
   12769 H6        -436.0243  -346.8907   462.4793 H6            1 RES     
   12770 H6        -435.7995  -348.3492   461.4619 H6            1 RES     
   12771 H6        -436.1195  -349.8033   463.4675 H6            1 RES     
   12772 H6        -437.5166  -348.7618   463.0134 H6            1 RES     
   12773 H6        -436.9792  -347.1176   464.7701 H6            1 RES     
   12774 H6        -435.5846  -348.1404   465.3185 H6            1 RES     
   12775 H6        -437.2789  -348.7620   465.4349 H6            1 RES     
   12776 H6        -431.1075  -343.9015   459.0889 H6            1 RES     
   12777 H6        -430.1426  -344.7288   460.3439 H6            1 RES     
   12778 H6        -429.5634  -342.8622   461.1647 H6            1 RES     
   12779 H6        -430.3462  -341.3675   460.8131 H6            1 RES     
   12780 H6        -430.5896  -342.9246   463.4958 H6            1 RES     
   12781 H6        -432.0513  -340.9309   463.2326 H6            1 RES     
   12782 H6        -430.9973  -340.9110   464.6760 H6            1 RES     
   12783 H6        -429.4665  -339.2552   463.7186 H6            1 RES     
   12784 H6        -430.2531  -339.3670   462.1330 H6            1 RES     
   12785 H6        -431.0358  -337.3454   463.1043 H6            1 RES     
   12786 H6        -432.4007  -338.4777   463.1478 H6            1 RES     
   12787 H6        -431.9829  -338.9295   465.5782 H6            1 RES     
   12788 H6        -432.3414  -337.2146   465.2030 H6            1 RES     
   12789 H6        -429.5348  -338.3683   465.8012 H6            1 RES     
   12790 H6        -430.5696  -337.3844   466.8844 H6            1 RES     
   12791 H6        -430.4573  -335.4597   465.2682 H6            1 RES     
   12792 H6        -428.8335  -335.9681   465.8693 H6            1 RES     
   12793 H6        -429.3417  -336.4235   464.2157 H6            1 RES     
   12794 H6        -428.2790  -343.0198   463.2969 H6            1 RES     
   12795 H6        -428.5842  -341.6580   464.4118 H6            1 RES     
   12796 H6        -428.1243  -340.1194   462.2987 H6            1 RES     
   12797 H6        -427.6760  -341.5960   461.4333 H6            1 RES     
   12798 H6        -425.7830  -340.2902   462.2698 H6            1 RES     
   12799 H6        -426.3567  -340.4089   463.9684 H6            1 RES     
   12800 H6        -425.4516  -342.8067   462.2190 H6            1 RES     
   12801 H6        -426.0036  -342.8727   463.9333 H6            1 RES     
   12802 H6        -424.0784  -341.4142   464.6262 H6            1 RES     
   12803 H6        -423.5939  -342.9805   463.8845 H6            1 RES     
   12804 H6        -423.6017  -340.2622   462.4208 H6            1 RES     
   12805 H6        -423.1203  -341.8403   461.7018 H6            1 RES     
   12806 H6        -421.2013  -340.3964   462.3506 H6            1 RES     
   12807 H6        -421.7516  -340.3715   464.0629 H6            1 RES     
   12808 H6        -421.3426  -342.8547   464.2082 H6            1 RES     
   12809 H6        -419.8747  -341.9682   463.6806 H6            1 RES     
   12810 H6        -420.8543  -342.8651   462.4618 H6            1 RES     
   12811 C0        -439.0014  -353.2630   456.8551 C0            1 RES     
   12812 C0        -440.3028  -353.4581   455.9769 C0            1 RES     
   12813 C0        -440.5550  -352.3550   455.2332 C0            1 RES     
   12814 S1        -441.9003  -352.4910   454.2389 S1            1 RES     
   12815 C0        -442.2379  -354.0783   454.7426 C0            1 RES     
   12816 C0        -441.3223  -354.4208   455.7479 C0            1 RES     
   12817 C0        -439.6314  -351.3355   455.5675 C0            1 RES     
   12818 C0        -438.7901  -351.7958   456.4654 C0            1 RES     
   12819 C0        -437.9681  -350.7403   456.9873 C0            1 RES     
   12820 C0        -438.2869  -349.5190   456.4220 C0            1 RES     
   12821 S1        -439.5643  -349.6017   455.1546 S1            1 RES     
   12822 H2        -441.3940  -355.3558   456.2404 H2            1 RES     
   12823 H2        -437.3114  -350.8586   457.7966 H2            1 RES     
   12824 N3        -444.1241  -357.2652   453.8890 N3            1 RES     
   12825 C0        -443.2607  -356.3876   454.4731 C0            1 RES     
   12826 C0        -443.2662  -355.0047   454.1492 C0            1 RES     
   12827 C0        -444.2250  -354.5904   453.1996 C0            1 RES     
   12828 N3        -444.3851  -353.3115   452.7705 N3            1 RES     
   12829 S1        -445.6274  -353.4473   451.6914 S1            1 RES     
   12830 N3        -445.9970  -355.0538   451.7087 N3            1 RES     
   12831 C0        -445.1104  -355.5433   452.6154 C0            1 RES     
   12832 C0        -445.0426  -356.8794   452.9697 C0            1 RES     
   12833 H4        -442.5526  -356.7933   455.1656 H4            1 RES     
   12834 C5        -442.5252  -357.1783   447.2569 C5            1 RES     
   12835 C5        -442.8700  -356.1341   448.3187 C5            1 RES     
   12836 C5        -442.4268  -356.5422   449.7339 C5            1 RES     
   12837 C5        -440.8978  -356.6279   449.8949 C5            1 RES     
   12838 C5        -440.5186  -356.9975   451.3371 C5            1 RES     
   12839 C5        -438.9897  -356.9407   451.5491 C5            1 RES     
   12840 C5        -438.5181  -357.2464   452.9957 C5            1 RES     
   12841 C5        -439.2864  -356.3946   454.0077 C5            1 RES     
   12842 C5        -438.6933  -356.2491   455.4317 C5            1 RES     
   12843 C5        -438.7044  -357.4913   456.4041 C5            1 RES     
   12844 C5        -440.1808  -357.6938   456.8441 C5            1 RES     
   12845 C5        -440.7398  -358.7251   457.8315 C5            1 RES     
   12846 C5        -442.2724  -358.4182   457.8963 C5            1 RES     
   12847 C5        -443.1405  -359.2824   458.8091 C5            1 RES     
   12848 C5        -442.8957  -359.0215   460.2902 C5            1 RES     
   12849 C5        -437.5541  -355.2210   455.4867 C5            1 RES     
   12850 C0        -437.6743  -354.2352   456.7203 C0            1 RES     
   12851 C5        -436.2292  -353.6700   457.0652 C5            1 RES     
   12852 C5        -435.7038  -353.8390   458.5336 C5            1 RES     
   12853 C5        -436.1293  -352.6984   459.5027 C5            1 RES     
   12854 C5        -435.3423  -351.3752   459.3485 C5            1 RES     
   12855 C5        -435.9709  -350.1951   460.1153 C5            1 RES     
   12856 C5        -435.8670  -350.2744   461.6465 C5            1 RES     
   12857 C5        -434.4278  -350.2421   462.1965 C5            1 RES     
   12858 C5        -433.6581  -348.9784   461.7994 C5            1 RES     
   12859 C5        -434.1604  -354.1582   458.6135 C5            1 RES     
   12860 C5        -433.2112  -353.2988   457.7335 C5            1 RES     
   12861 C5        -431.7074  -353.4980   458.0281 C5            1 RES     
   12862 C5        -431.1738  -354.9233   457.7822 C5            1 RES     
   12863 C5        -429.6514  -355.0507   458.0349 C5            1 RES     
   12864 C5        -428.7888  -354.2601   457.0265 C5            1 RES     
   12865 C5        -427.2726  -354.3707   457.2770 C5            1 RES     
   12866 C5        -426.7170  -355.7841   457.1019 C5            1 RES     
   12867 H6        -441.4285  -357.3076   447.1607 H6            1 RES     
   12868 H6        -442.9179  -356.8473   446.2724 H6            1 RES     
   12869 H6        -442.9915  -358.1531   447.5143 H6            1 RES     
   12870 H6        -442.4164  -355.1568   448.0437 H6            1 RES     
   12871 H6        -443.9750  -356.0097   448.3255 H6            1 RES     
   12872 H6        -442.8081  -355.7684   450.4374 H6            1 RES     
   12873 H6        -442.8961  -357.5132   450.0025 H6            1 RES     
   12874 H6        -440.4665  -355.6328   449.6443 H6            1 RES     
   12875 H6        -440.4685  -357.3876   449.2102 H6            1 RES     
   12876 H6        -441.0088  -356.2536   452.0007 H6            1 RES     
   12877 H6        -440.9031  -358.0102   451.5839 H6            1 RES     
   12878 H6        -438.4800  -357.6387   450.8507 H6            1 RES     
   12879 H6        -438.6598  -355.9076   451.2977 H6            1 RES     
   12880 H6        -438.6561  -358.3193   453.2494 H6            1 RES     
   12881 H6        -437.4331  -357.0095   453.0385 H6            1 RES     
   12882 H6        -440.3206  -356.7824   454.0643 H6            1 RES     
   12883 H6        -439.3698  -355.3633   453.5950 H6            1 RES     
   12884 H6        -439.3949  -355.6490   455.8861 H6            1 RES     
   12885 H6        -438.2631  -358.3848   455.9147 H6            1 RES     
   12886 H6        -438.1203  -357.2580   457.3216 H6            1 RES     
   12887 H6        -440.4273  -356.7506   457.3670 H6            1 RES     
   12888 H6        -440.7534  -357.8352   455.9120 H6            1 RES     
   12889 H6        -440.2666  -358.6002   458.8294 H6            1 RES     
   12890 H6        -440.5691  -359.7571   457.4612 H6            1 RES     
   12891 H6        -442.4395  -357.3542   458.1878 H6            1 RES     
   12892 H6        -442.6844  -358.5454   456.8710 H6            1 RES     
   12893 H6        -443.0079  -360.3552   458.5620 H6            1 RES     
   12894 H6        -444.2015  -359.0076   458.6061 H6            1 RES     
   12895 H6        -443.0717  -357.9480   460.5243 H6            1 RES     
   12896 H6        -441.8626  -359.2997   460.5750 H6            1 RES     
   12897 H6        -443.6143  -359.6246   460.8853 H6            1 RES     
   12898 H6        -437.5535  -354.5537   454.5976 H6            1 RES     
   12899 H6        -436.6131  -355.8112   455.4491 H6            1 RES     
   12900 H6        -435.5337  -354.3242   456.5059 H6            1 RES     
   12901 H6        -436.0222  -352.6754   456.6228 H6            1 RES     
   12902 H6        -436.1937  -354.7578   458.9281 H6            1 RES     
   12903 H6        -437.2181  -352.5345   459.3617 H6            1 RES     
   12904 H6        -435.9828  -353.0429   460.5493 H6            1 RES     
   12905 H6        -434.2920  -351.5014   459.6733 H6            1 RES     
   12906 H6        -435.3098  -351.0939   458.2792 H6            1 RES     
   12907 H6        -435.4901  -349.2561   459.7734 H6            1 RES     
   12908 H6        -437.0437  -350.1092   459.8466 H6            1 RES     
   12909 H6        -436.3778  -351.1914   462.0079 H6            1 RES     
   12910 H6        -436.4129  -349.4009   462.0655 H6            1 RES     
   12911 H6        -433.8609  -351.1368   461.8665 H6            1 RES     
   12912 H6        -434.4900  -350.2729   463.3053 H6            1 RES     
   12913 H6        -434.2090  -348.0697   462.1237 H6            1 RES     
   12914 H6        -432.6607  -348.9825   462.2858 H6            1 RES     
   12915 H6        -433.4930  -348.9359   460.7030 H6            1 RES     
   12916 H6        -434.0122  -355.2062   458.2745 H6            1 RES     
   12917 H6        -433.8511  -354.1165   459.6806 H6            1 RES     
   12918 H6        -433.3904  -352.2249   457.8767 H6            1 RES     
   12919 H6        -433.4009  -353.5087   456.6593 H6            1 RES     
   12920 H6        -431.1702  -352.7912   457.3649 H6            1 RES     
   12921 H6        -431.4987  -353.2077   459.0816 H6            1 RES     
   12922 H6        -431.3954  -355.2416   456.7404 H6            1 RES     
   12923 H6        -431.6894  -355.6152   458.4787 H6            1 RES     
   12924 H6        -429.4163  -354.7235   459.0714 H6            1 RES     
   12925 H6        -429.3927  -356.1287   457.9475 H6            1 RES     
   12926 H6        -429.0355  -353.1823   457.0971 H6            1 RES     
   12927 H6        -429.0140  -354.6036   455.9932 H6            1 RES     
   12928 H6        -426.7566  -353.7142   456.5418 H6            1 RES     
   12929 H6        -427.0298  -354.0007   458.2963 H6            1 RES     
   12930 H6        -427.1439  -356.4795   457.8520 H6            1 RES     
   12931 H6        -425.6150  -355.7642   457.2442 H6            1 RES     
   12932 H6        -426.9326  -356.1601   456.0794 H6            1 RES     
   12933 C0        -447.5069  -361.5854   452.0624 C0            1 RES     
   12934 C0        -448.9350  -361.3353   451.4294 C0            1 RES     
   12935 C0        -449.0526  -360.0604   450.9883 C0            1 RES     
   12936 S1        -450.5276  -359.7186   450.2641 S1            1 RES     
   12937 C0        -451.1185  -361.2958   450.4894 C0            1 RES     
   12938 C0        -450.1590  -362.0222   451.2092 C0            1 RES     
   12939 C0        -447.8935  -359.3275   451.3395 C0            1 RES     
   12940 C0        -447.0469  -360.1279   451.9464 C0            1 RES     
   12941 C0        -445.9504  -359.3874   452.5046 C0            1 RES     
   12942 C0        -446.0808  -358.0303   452.2715 C0            1 RES     
   12943 S1        -447.5192  -357.5845   451.2831 S1            1 RES     
   12944 H2        -450.3554  -363.0200   451.5055 H2            1 RES     
   12945 H2        -445.2220  -359.8076   453.1315 H2            1 RES     
   12946 N3        -453.7470  -363.8076   449.3832 N3            1 RES     
   12947 C0        -452.6394  -363.2591   449.9569 C0            1 RES     
   12948 C0        -452.3971  -361.8599   449.9284 C0            1 RES     
   12949 C0        -453.3748  -361.0706   449.2851 C0            1 RES     
   12950 N3        -453.3195  -359.7187   449.1641 N3            1 RES     
   12951 S1        -454.7074  -359.3745   448.3388 S1            1 RES     
   12952 N3        -455.4051  -360.8488   448.0994 N3            1 RES     
   12953 C0        -454.5196  -361.6872   448.7002 C0            1 RES     
   12954 C0        -454.6874  -363.0598   448.7554 C0            1 RES     
   12955 H4        -451.9402  -363.9352   450.4033 H4            1 RES     
   12956 C5        -453.1641  -362.4291   442.7267 C5            1 RES     
   12957 C5        -453.1171  -361.6233   444.0248 C5            1 RES     
   12958 C5        -452.5672  -362.4271   445.2154 C5            1 RES     
   12959 C5        -451.0853  -362.8149   445.0592 C5            1 RES     
   12960 C5        -450.5851  -363.5770   446.2958 C5            1 RES     
   12961 C5        -449.0652  -363.8409   446.2175 C5            1 RES     
   12962 C5        -448.4614  -364.5592   447.4537 C5            1 RES     
   12963 C5        -448.8719  -363.8511   448.7460 C5            1 RES     
   12964 C5        -448.0577  -364.1543   450.0290 C5            1 RES     
   12965 C5        -448.1902  -365.5701   450.7118 C5            1 RES     
   12966 C5        -449.5943  -365.6096   451.3764 C5            1 RES     
   12967 C5        -450.2086  -366.7317   452.2217 C5            1 RES     
   12968 C5        -451.6134  -366.1855   452.6405 C5            1 RES     
   12969 C5        -452.5016  -367.0760   453.5076 C5            1 RES     
   12970 C5        -451.9907  -367.2215   454.9356 C5            1 RES     
   12971 C5        -446.7298  -363.3845   450.0724 C5            1 RES     
   12972 C0        -446.4530  -362.7146   451.4805 C0            1 RES     
   12973 C5        -444.8857  -362.5096   451.6494 C5            1 RES     
   12974 C5        -444.1976  -363.1119   452.9239 C5            1 RES     
   12975 C5        -444.2216  -362.1777   454.1682 C5            1 RES     
   12976 C5        -443.2017  -361.0147   454.1384 C5            1 RES     
   12977 C5        -443.4432  -359.9592   455.2354 C5            1 RES     
   12978 C5        -443.1337  -360.4169   456.6694 C5            1 RES     
   12979 C5        -441.6558  -360.7687   456.9278 C5            1 RES     
   12980 C5        -440.7011  -359.6018   456.6561 C5            1 RES     
   12981 C5        -442.7637  -363.7061   452.6395 C5            1 RES     
   12982 C5        -441.7933  -362.8421   451.7874 C5            1 RES     
   12983 C5        -440.3402  -363.3658   451.7412 C5            1 RES     
   12984 C5        -440.1659  -364.7626   451.1126 C5            1 RES     
   12985 C5        -438.6856  -365.2109   451.0371 C5            1 RES     
   12986 C5        -437.8326  -364.3671   450.0643 C5            1 RES     
   12987 C5        -436.3551  -364.7978   449.9914 C5            1 RES     
   12988 C5        -436.1465  -366.2038   449.4291 C5            1 RES     
   12989 H6        -452.1468  -362.7219   442.3976 H6            1 RES     
   12990 H6        -453.6179  -361.8103   441.9242 H6            1 RES     
   12991 H6        -453.7847  -363.3400   442.8649 H6            1 RES     
   12992 H6        -452.5108  -360.7036   443.8727 H6            1 RES     
   12993 H6        -454.1565  -361.3126   444.2687 H6            1 RES     
   12994 H6        -452.6661  -361.7881   446.1215 H6            1 RES     
   12995 H6        -453.1882  -363.3364   445.3657 H6            1 RES     
   12996 H6        -450.4931  -361.8801   444.9383 H6            1 RES     
   12997 H6        -450.9342  -363.4533   444.1648 H6            1 RES     
   12998 H6        -450.8015  -362.9381   447.1783 H6            1 RES     
   12999 H6        -451.1363  -364.5359   446.4004 H6            1 RES     
   13000 H6        -448.8253  -364.4311   445.3071 H6            1 RES     
   13001 H6        -448.5630  -362.8518   446.1231 H6            1 RES     
   13002 H6        -448.7865  -365.6204   447.5053 H6            1 RES     
   13003 H6        -447.3567  -364.5330   447.3347 H6            1 RES     
   13004 H6        -449.9451  -364.0540   448.9199 H6            1 RES     
   13005 H6        -448.7929  -362.7531   448.5758 H6            1 RES     
   13006 H6        -448.5398  -363.5660   450.7220 H6            1 RES     
   13007 H6        -448.0273  -366.3849   449.9755 H6            1 RES     
   13008 H6        -447.4409  -365.6675   451.5282 H6            1 RES     
   13009 H6        -449.5535  -364.7895   452.1177 H6            1 RES     
   13010 H6        -450.3151  -365.4231   450.5626 H6            1 RES     
   13011 H6        -449.5776  -366.9322   453.1144 H6            1 RES     
   13012 H6        -450.3190  -367.6597   451.6234 H6            1 RES     
   13013 H6        -451.5044  -365.2089   453.1690 H6            1 RES     
   13014 H6        -452.1899  -365.9913   451.7093 H6            1 RES     
   13015 H6        -452.6393  -368.0656   453.0265 H6            1 RES     
   13016 H6        -453.4974  -366.5794   453.5722 H6            1 RES     
   13017 H6        -451.8967  -366.2205   455.4126 H6            1 RES     
   13018 H6        -451.0105  -367.7358   454.9542 H6            1 RES     
   13019 H6        -452.7256  -367.8132   455.5222 H6            1 RES     
   13020 H6        -446.7179  -362.5359   449.3546 H6            1 RES     
   13021 H6        -445.9528  -364.1043   449.7356 H6            1 RES     
   13022 H6        -444.4366  -363.1235   450.8458 H6            1 RES     
   13023 H6        -444.5387  -361.4904   451.3873 H6            1 RES     
   13024 H6        -444.8088  -363.9977   453.2097 H6            1 RES     
   13025 H6        -445.2588  -361.7970   454.2751 H6            1 RES     
   13026 H6        -443.9992  -362.7812   455.0747 H6            1 RES     
   13027 H6        -442.1665  -361.3964   454.2230 H6            1 RES     
   13028 H6        -443.2681  -360.4976   453.1628 H6            1 RES     
   13029 H6        -442.8288  -359.0650   455.0060 H6            1 RES     
   13030 H6        -444.5006  -359.6255   455.2008 H6            1 RES     
   13031 H6        -443.7696  -361.2894   456.9277 H6            1 RES     
   13032 H6        -443.4124  -359.5863   457.3542 H6            1 RES     
   13033 H6        -441.3483  -361.6445   456.3201 H6            1 RES     
   13034 H6        -441.5586  -361.0506   457.9980 H6            1 RES     
   13035 H6        -440.9910  -358.7141   457.2581 H6            1 RES     
   13036 H6        -439.6670  -359.8958   456.9308 H6            1 RES     
   13037 H6        -440.6945  -359.3296   455.5805 H6            1 RES     
   13038 H6        -442.8946  -364.6528   452.0723 H6            1 RES     
   13039 H6        -442.2985  -363.9739   453.6131 H6            1 RES     
   13040 H6        -441.7157  -361.8187   452.1779 H6            1 RES     
   13041 H6        -442.1800  -362.7542   450.7498 H6            1 RES     
   13042 H6        -439.7684  -362.6269   451.1453 H6            1 RES     
   13043 H6        -439.9210  -363.3752   452.7717 H6            1 RES     
   13044 H6        -440.6018  -364.7805   450.0901 H6            1 RES     
   13045 H6        -440.7088  -365.4989   451.7394 H6            1 RES     
   13046 H6        -438.2356  -365.1857   452.0538 H6            1 RES     
   13047 H6        -438.6791  -366.2654   450.6842 H6            1 RES     
   13048 H6        -437.8301  -363.3108   450.3988 H6            1 RES     
   13049 H6        -438.2762  -364.4104   449.0457 H6            1 RES     
   13050 H6        -435.8251  -364.0862   449.3202 H6            1 RES     
   13051 H6        -435.8910  -364.7289   450.9988 H6            1 RES     
   13052 H6        -436.5966  -366.9717   450.0896 H6            1 RES     
   13053 H6        -435.0571  -366.4117   449.3582 H6            1 RES     
   13054 H6        -436.5861  -366.2825   448.4122 H6            1 RES     
   13055 C0        -458.2067  -366.9092   447.3993 C0            1 RES     
   13056 C0        -459.6259  -366.2697   447.1165 C0            1 RES     
   13057 C0        -459.5322  -364.9263   446.9750 C0            1 RES     
   13058 S1        -460.9904  -364.1694   446.6324 S1            1 RES     
   13059 C0        -461.8648  -365.6264   446.6411 C0            1 RES     
   13060 C0        -460.9872  -366.6594   447.0001 C0            1 RES     
   13061 C0        -458.2043  -364.5124   447.2390 C0            1 RES     
   13062 C0        -457.4682  -365.5696   447.4963 C0            1 RES     
   13063 C0        -456.1687  -365.1866   447.9725 C0            1 RES     
   13064 C0        -456.0390  -363.8119   448.0500 C0            1 RES     
   13065 S1        -457.4788  -362.8992   447.4678 S1            1 RES     
   13066 H2        -461.3463  -367.6488   447.1192 H2            1 RES     
   13067 H2        -455.4625  -365.8647   448.3491 H2            1 RES     
   13068 N3        -465.1033  -367.3033   445.5721 N3            1 RES     
   13069 C0        -463.8317  -367.1094   446.0220 C0            1 RES     
   13070 C0        -463.3029  -365.8082   446.2330 C0            1 RES     
   13071 C0        -464.1734  -364.7300   445.9636 C0            1 RES     
   13072 N3        -463.8489  -363.4193   446.1119 N3            1 RES     
   13073 S1        -465.2376  -362.6514   445.6560 S1            1 RES     
   13074 N3        -466.2617  -363.8810   445.2599 N3            1 RES     
   13075 C0        -465.4970  -364.9798   445.4962 C0            1 RES     
   13076 C0        -465.9442  -366.2750   445.3020 C0            1 RES     
   13077 H4        -463.2350  -367.9839   446.1789 H4            1 RES     
   13078 C5        -465.2289  -364.5070   439.3501 C5            1 RES     
   13079 C5        -464.8196  -364.0537   440.7514 C5            1 RES     
   13080 C5        -464.2845  -365.2008   441.6253 C5            1 RES     
   13081 C5        -462.9594  -365.7937   441.1120 C5            1 RES     
   13082 C5        -462.4566  -366.9032   442.0482 C5            1 RES     
   13083 C5        -461.0568  -367.4029   441.6277 C5            1 RES     
   13084 C5        -460.4447  -368.4885   442.5524 C5            1 RES     
   13085 C5        -460.4989  -368.0472   444.0161 C5            1 RES     
   13086 C5        -459.5879  -368.7842   445.0299 C5            1 RES     
   13087 C5        -459.9176  -370.2760   445.4227 C5            1 RES     
   13088 C5        -461.1838  -370.2257   446.3222 C5            1 RES     
   13089 C5        -461.8919  -371.3910   447.0232 C5            1 RES     
   13090 C5        -463.0700  -370.7227   447.8060 C5            1 RES     
   13091 C5        -463.9899  -371.6240   448.6277 C5            1 RES     
   13092 C5        -463.3166  -372.1916   449.8711 C5            1 RES     
   13093 C5        -458.1347  -368.2915   444.9734 C5            1 RES     
   13094 C0        -457.5162  -368.0344   446.4086 C0            1 RES     
   13095 C5        -455.9341  -368.1531   446.3117 C5            1 RES     
   13096 C5        -455.2100  -369.1518   447.2807 C5            1 RES     
   13097 C5        -454.8498  -368.5506   448.6701 C5            1 RES     
   13098 C5        -453.6207  -367.6109   448.6825 C5            1 RES     
   13099 C5        -453.4664  -366.8207   449.9968 C5            1 RES     
   13100 C5        -453.0535  -367.6529   451.2210 C5            1 RES     
   13101 C5        -451.6634  -368.3092   451.1140 C5            1 RES     
   13102 C5        -450.5322  -367.2969   450.9074 C5            1 RES     
   13103 C5        -453.9943  -369.9031   446.6116 C5            1 RES     
   13104 C5        -452.9985  -369.0451   445.7832 C5            1 RES     
   13105 C5        -451.7140  -369.7889   445.3534 C5            1 RES     
   13106 C5        -451.9370  -371.0047   444.4321 C5            1 RES     
   13107 C5        -450.6145  -371.6744   443.9843 C5            1 RES     
   13108 C5        -449.7541  -370.7864   443.0585 C5            1 RES     
   13109 C5        -448.4302  -371.4393   442.6173 C5            1 RES     
   13110 C5        -448.6122  -372.6857   441.7512 C5            1 RES     
   13111 H6        -464.3578  -364.8867   438.7793 H6            1 RES     
   13112 H6        -465.6534  -363.6456   438.7926 H6            1 RES     
   13113 H6        -466.0024  -365.3015   439.4165 H6            1 RES     
   13114 H6        -464.0600  -363.2450   440.6762 H6            1 RES     
   13115 H6        -465.7209  -363.6327   441.2482 H6            1 RES     
   13116 H6        -464.1096  -364.7882   442.6443 H6            1 RES     
   13117 H6        -465.0563  -365.9966   441.7037 H6            1 RES     
   13118 H6        -462.2057  -364.9755   441.0727 H6            1 RES     
   13119 H6        -463.0820  -366.2176   440.0944 H6            1 RES     
   13120 H6        -462.3987  -366.4645   443.0671 H6            1 RES     
   13121 H6        -463.1783  -367.7478   442.0592 H6            1 RES     
   13122 H6        -461.0858  -367.7926   440.5875 H6            1 RES     
   13123 H6        -460.3744  -366.5233   441.6420 H6            1 RES     
   13124 H6        -460.9778  -369.4579   442.4484 H6            1 RES     
   13125 H6        -459.3899  -368.6287   442.2316 H6            1 RES     
   13126 H6        -461.5529  -368.0944   444.3477 H6            1 RES     
   13127 H6        -460.2132  -366.9715   444.0609 H6            1 RES     
   13128 H6        -459.8254  -368.3023   445.9075 H6            1 RES     
   13129 H6        -460.0432  -370.9081   444.5187 H6            1 RES     
   13130 H6        -459.0942  -370.6942   446.0429 H6            1 RES     
   13131 H6        -460.8596  -369.6254   447.1929 H6            1 RES     
   13132 H6        -461.9602  -369.7279   445.7171 H6            1 RES     
   13133 H6        -461.1935  -371.9052   447.7184 H6            1 RES     
   13134 H6        -462.2852  -372.1163   446.2811 H6            1 RES     
   13135 H6        -462.6779  -369.9342   448.4913 H6            1 RES     
   13136 H6        -463.7227  -370.2150   447.0622 H6            1 RES     
   13137 H6        -464.4054  -372.4310   447.9908 H6            1 RES     
   13138 H6        -464.8359  -370.9905   448.9819 H6            1 RES     
   13139 H6        -462.9415  -371.3650   450.5147 H6            1 RES     
   13140 H6        -462.4773  -372.8591   449.5961 H6            1 RES     
   13141 H6        -464.0662  -372.7677   450.4548 H6            1 RES     
   13142 H6        -458.0479  -367.3123   444.4547 H6            1 RES     
   13143 H6        -457.5879  -369.0353   444.3545 H6            1 RES     
   13144 H6        -455.7503  -368.6274   445.3290 H6            1 RES     
   13145 H6        -455.4198  -367.1778   446.2009 H6            1 RES     
   13146 H6        -455.9473  -369.9591   447.4921 H6            1 RES     
   13147 H6        -455.7543  -368.0306   449.0492 H6            1 RES     
   13148 H6        -454.6301  -369.3815   449.3749 H6            1 RES     
   13149 H6        -452.6901  -368.1770   448.4874 H6            1 RES     
   13150 H6        -453.7185  -366.8735   447.8638 H6            1 RES     
   13151 H6        -452.7158  -366.0195   449.8407 H6            1 RES     
   13152 H6        -454.4213  -366.3085   450.2344 H6            1 RES     
   13153 H6        -453.8159  -368.4366   451.4135 H6            1 RES     
   13154 H6        -453.0440  -366.9732   452.1010 H6            1 RES     
   13155 H6        -451.6434  -369.0555   450.2933 H6            1 RES     
   13156 H6        -451.4717  -368.8498   452.0654 H6            1 RES     
   13157 H6        -450.5335  -366.5410   451.7217 H6            1 RES     
   13158 H6        -449.5559  -367.8242   450.9129 H6            1 RES     
   13159 H6        -450.6265  -366.7825   449.9288 H6            1 RES     
   13160 H6        -454.4068  -370.6500   445.8994 H6            1 RES     
   13161 H6        -453.4585  -370.4717   447.4026 H6            1 RES     
   13162 H6        -452.6472  -368.1736   446.3514 H6            1 RES     
   13163 H6        -453.5064  -368.6469   444.8790 H6            1 RES     
   13164 H6        -451.0919  -369.0416   444.8218 H6            1 RES     
   13165 H6        -451.1590  -370.1161   446.2604 H6            1 RES     
   13166 H6        -452.5128  -370.7026   443.5305 H6            1 RES     
   13167 H6        -452.5260  -371.7620   444.9882 H6            1 RES     
   13168 H6        -450.0244  -371.9706   444.8792 H6            1 RES     
   13169 H6        -450.8857  -372.5992   443.4297 H6            1 RES     
   13170 H6        -449.4766  -369.8570   443.5941 H6            1 RES     
   13171 H6        -450.3422  -370.5081   442.1567 H6            1 RES     
   13172 H6        -447.8655  -370.6927   442.0160 H6            1 RES     
   13173 H6        -447.8185  -371.6941   443.5094 H6            1 RES     
   13174 H6        -449.1135  -373.4974   442.3154 H6            1 RES     
   13175 H6        -447.6151  -373.0582   441.4318 H6            1 RES     
   13176 H6        -449.2038  -372.4423   440.8433 H6            1 RES     
   13177 C0        -470.3656  -369.0145   443.8919 C0            1 RES     
   13178 C0        -471.6412  -368.0879   444.0229 C0            1 RES     
   13179 C0        -471.2845  -366.7871   444.1425 C0            1 RES     
   13180 S1        -472.5816  -365.7271   444.2474 S1            1 RES     
   13181 C0        -473.7360  -366.9682   444.1270 C0            1 RES     
   13182 C0        -473.0562  -368.1942   444.0931 C0            1 RES     
   13183 C0        -469.8749  -366.6868   444.2254 C0            1 RES     
   13184 C0        -469.3519  -367.8870   444.1160 C0            1 RES     
   13185 C0        -467.9448  -367.8617   444.4018 C0            1 RES     
   13186 C0        -467.5143  -366.5893   444.7311 C0            1 RES     
   13187 S1        -468.7957  -365.3269   444.6341 S1            1 RES     
   13188 H2        -473.5968  -369.1049   444.0749 H2            1 RES     
   13189 H2        -467.3521  -368.7227   444.4898 H2            1 RES     
   13190 N3        -477.3796  -367.7494   443.3809 N3            1 RES     
   13191 C0        -476.0438  -367.8937   443.6083 C0            1 RES     
   13192 C0        -475.2239  -366.7931   443.9742 C0            1 RES     
   13193 C0        -475.8738  -365.5466   444.1020 C0            1 RES     
   13194 N3        -475.2585  -364.3863   444.4490 N3            1 RES     
   13195 S1        -476.5027  -363.3011   444.4340 S1            1 RES     
   13196 N3        -477.8130  -364.2025   444.0000 N3            1 RES     
   13197 C0        -477.2745  -365.4424   443.8564 C0            1 RES     
   13198 C0        -478.0118  -366.5555   443.4922 C0            1 RES     
   13199 H4        -475.6313  -368.8710   443.4663 H4            1 RES     
   13200 C5        -477.8223  -363.5776   438.0004 C5            1 RES     
   13201 C5        -477.1232  -363.5490   439.3595 C5            1 RES     
   13202 C5        -476.7225  -364.9463   439.8624 C5            1 RES     
   13203 C5        -475.6455  -365.6230   438.9947 C5            1 RES     
   13204 C5        -475.2587  -366.9935   439.5711 C5            1 RES     
   13205 C5        -474.0759  -367.6161   438.7972 C5            1 RES     
   13206 C5        -473.5802  -368.9803   439.3466 C5            1 RES     
   13207 C5        -473.3220  -368.8968   440.8520 C5            1 RES     
   13208 C5        -472.4501  -370.0013   441.5005 C5            1 RES     
   13209 C5        -473.0292  -371.4622   441.6373 C5            1 RES     
   13210 C5        -474.1084  -371.4062   442.7540 C5            1 RES     
   13211 C5        -474.9377  -372.5621   443.3258 C5            1 RES     
   13212 C5        -475.8168  -371.9032   444.4394 C5            1 RES     
   13213 C5        -476.7764  -372.7985   445.2214 C5            1 RES     
   13214 C5        -476.0639  -373.7541   446.1704 C5            1 RES     
   13215 C5        -470.9498  -369.7716   441.2678 C5            1 RES     
   13216 C0        -470.0857  -369.9752   442.5793 C0            1 RES     
   13217 C5        -468.5975  -370.3426   442.1585 C5            1 RES     
   13218 C5        -467.9686  -371.6538   442.7467 C5            1 RES     
   13219 C5        -467.2871  -371.4726   444.1337 C5            1 RES     
   13220 C5        -465.8976  -370.7929   444.1011 C5            1 RES     
   13221 C5        -465.3855  -370.3771   445.4942 C5            1 RES     
   13222 C5        -464.9838  -371.5354   446.4209 C5            1 RES     
   13223 C5        -463.7975  -372.3804   445.9178 C5            1 RES     
   13224 C5        -462.5194  -371.5622   445.7085 C5            1 RES     
   13225 C5        -467.0540  -372.4256   441.7180 C5            1 RES     
   13226 C5        -466.0314  -371.5834   440.9062 C5            1 RES     
   13227 C5        -465.0134  -372.4169   440.0957 C5            1 RES     
   13228 C5        -465.6247  -373.3207   439.0065 C5            1 RES     
   13229 C5        -464.5568  -374.0857   438.1866 C5            1 RES     
   13230 C5        -463.6730  -373.1680   437.3133 C5            1 RES     
   13231 C5        -462.5992  -373.9188   436.5028 C5            1 RES     
   13232 C5        -463.1692  -374.8721   435.4525 C5            1 RES     
   13233 H6        -477.1465  -363.9574   437.2080 H6            1 RES     
   13234 H6        -478.1305  -362.5478   437.7220 H6            1 RES     
   13235 H6        -478.7292  -364.2170   438.0509 H6            1 RES     
   13236 H6        -476.2280  -362.8915   439.3061 H6            1 RES     
   13237 H6        -477.8302  -363.1070   440.0952 H6            1 RES     
   13238 H6        -476.3150  -364.8248   440.8911 H6            1 RES     
   13239 H6        -477.6264  -365.5901   439.9238 H6            1 RES     
   13240 H6        -474.7486  -364.9638   438.9788 H6            1 RES     
   13241 H6        -476.0047  -365.7648   437.9549 H6            1 RES     
   13242 H6        -474.9585  -366.8265   440.6275 H6            1 RES     
   13243 H6        -476.1345  -367.6766   439.5484 H6            1 RES     
   13244 H6        -474.3408  -367.7363   437.7247 H6            1 RES     
   13245 H6        -473.2269  -366.8986   438.8589 H6            1 RES     
   13246 H6        -474.3175  -369.7884   439.1517 H6            1 RES     
   13247 H6        -472.6390  -369.2227   438.8076 H6            1 RES     
   13248 H6        -474.3010  -368.8361   441.3630 H6            1 RES     
   13249 H6        -472.8096  -367.9297   441.0592 H6            1 RES     
   13250 H6        -472.4468  -369.7077   442.4868 H6            1 RES     
   13251 H6        -473.4191  -371.8294   440.6648 H6            1 RES     
   13252 H6        -472.2319  -372.1533   441.9896 H6            1 RES     
   13253 H6        -473.5384  -371.0962   443.6501 H6            1 RES     
   13254 H6        -474.8411  -370.6508   442.4234 H6            1 RES     
   13255 H6        -474.2705  -373.3408   443.7546 H6            1 RES     
   13256 H6        -475.5820  -373.0099   442.5412 H6            1 RES     
   13257 H6        -475.1685  -371.3813   445.1826 H6            1 RES     
   13258 H6        -476.4485  -371.1271   443.9539 H6            1 RES     
   13259 H6        -477.4442  -373.3455   444.5254 H6            1 RES     
   13260 H6        -477.4056  -372.1292   445.8528 H6            1 RES     
   13261 H6        -475.4300  -373.1829   446.8847 H6            1 RES     
   13262 H6        -475.4366  -374.4735   445.6095 H6            1 RES     
   13263 H6        -476.8246  -374.3119   446.7574 H6            1 RES     
   13264 H6        -470.7334  -368.7280   440.9524 H6            1 RES     
   13265 H6        -470.6722  -370.4310   440.4173 H6            1 RES     
   13266 H6        -468.6665  -370.5946   441.0832 H6            1 RES     
   13267 H6        -467.9089  -369.4745   442.1519 H6            1 RES     
   13268 H6        -468.8219  -372.3463   442.9267 H6            1 RES     
   13269 H6        -467.9934  -370.9074   444.7771 H6            1 RES     
   13270 H6        -467.1483  -372.4723   444.5992 H6            1 RES     
   13271 H6        -465.1487  -371.4503   443.6200 H6            1 RES     
   13272 H6        -465.9553  -369.8767   443.4839 H6            1 RES     
   13273 H6        -464.5125  -369.7059   445.3634 H6            1 RES     
   13274 H6        -466.1631  -369.7770   446.0097 H6            1 RES     
   13275 H6        -465.8591  -372.1964   446.5925 H6            1 RES     
   13276 H6        -464.6994  -371.0966   447.4023 H6            1 RES     
   13277 H6        -464.0588  -372.9020   444.9741 H6            1 RES     
   13278 H6        -463.5874  -373.1565   446.6844 H6            1 RES     
   13279 H6        -462.2387  -371.0331   446.6443 H6            1 RES     
   13280 H6        -461.6884  -372.2383   445.4191 H6            1 RES     
   13281 H6        -462.6450  -370.8217   444.8918 H6            1 RES     
   13282 H6        -467.7171  -372.8978   440.9614 H6            1 RES     
   13283 H6        -466.5413  -373.2506   442.2589 H6            1 RES     
   13284 H6        -465.4220  -370.9473   441.5618 H6            1 RES     
   13285 H6        -466.5703  -370.8993   440.2167 H6            1 RES     
   13286 H6        -464.3315  -371.6855   439.6181 H6            1 RES     
   13287 H6        -464.4135  -373.0422   440.7934 H6            1 RES     
   13288 H6        -466.2493  -372.7170   438.3129 H6            1 RES     
   13289 H6        -466.2731  -374.0732   439.4994 H6            1 RES     
   13290 H6        -463.9180  -374.6846   438.8722 H6            1 RES     
   13291 H6        -465.0982  -374.7901   437.5178 H6            1 RES     
   13292 H6        -463.1272  -372.4559   437.9635 H6            1 RES     
   13293 H6        -464.3145  -372.5849   436.6171 H6            1 RES     
   13294 H6        -461.9831  -373.1616   435.9691 H6            1 RES     
   13295 H6        -461.9312  -374.4813   437.1901 H6            1 RES     
   13296 H6        -463.7434  -375.6939   435.9252 H6            1 RES     
   13297 H6        -462.3331  -375.3267   434.8788 H6            1 RES     
   13298 H6        -463.8226  -374.3203   434.7439 H6            1 RES     
   13299 C0        -483.0751  -368.0638   442.4292 C0            1 RES     
   13300 C0        -484.0895  -366.9862   442.9883 C0            1 RES     
   13301 C0        -483.4495  -365.8342   443.2995 C0            1 RES     
   13302 S1        -484.4600  -364.6192   443.8648 S1            1 RES     
   13303 C0        -485.8578  -365.5742   443.7182 C0            1 RES     
   13304 C0        -485.4683  -366.8566   443.3056 C0            1 RES     
   13305 C0        -482.0545  -366.0050   443.1290 C0            1 RES     
   13306 C0        -481.8221  -367.2172   442.6793 C0            1 RES     
   13307 C0        -480.4158  -367.5074   442.6888 C0            1 RES     
   13308 C0        -479.6795  -366.4452   443.1814 C0            1 RES     
   13309 S1        -480.6614  -364.9917   443.5911 S1            1 RES     
   13310 H2        -486.1877  -367.6278   443.2066 H2            1 RES     
   13311 H2        -480.0144  -368.4547   442.4844 H2            1 RES     
   13312 N3        -489.6534  -365.5054   443.5419 N3            1 RES     
   13313 C0        -488.3607  -365.9312   443.4746 C0            1 RES     
   13314 C0        -487.2797  -365.1102   443.8926 C0            1 RES     
   13315 C0        -487.6221  -363.8357   444.3937 C0            1 RES     
   13316 N3        -486.7287  -362.9172   444.8449 N3            1 RES     
   13317 S1        -487.7005  -361.6589   445.2901 S1            1 RES     
   13318 N3        -489.2225  -362.1877   444.9414 N3            1 RES     
   13319 C0        -488.9886  -363.4325   444.4479 C0            1 RES     
   13320 C0        -489.9923  -364.2804   444.0132 C0            1 RES     
   13321 H4        -488.1921  -366.9035   443.0602 H4            1 RES     
   13322 C5        -489.9841  -360.1638   439.3103 C5            1 RES     
   13323 C5        -489.1021  -360.5817   440.4868 C5            1 RES     
   13324 C5        -488.9395  -362.1065   440.6084 C5            1 RES     
   13325 C5        -488.1722  -362.7354   439.4309 C5            1 RES     
   13326 C5        -488.0065  -364.2496   439.6312 C5            1 RES     
   13327 C5        -487.1117  -364.8677   438.5344 C5            1 RES     
   13328 C5        -486.8434  -366.3884   438.6891 C5            1 RES     
   13329 C5        -486.3538  -366.7115   440.1019 C5            1 RES     
   13330 C5        -485.6521  -368.0736   440.3324 C5            1 RES     
   13331 C5        -486.5034  -369.4005   440.2776 C5            1 RES     
   13332 C5        -487.3685  -369.4232   441.5682 C5            1 RES     
   13333 C5        -488.3319  -370.5183   442.0410 C5            1 RES     
   13334 C5        -488.8756  -369.9993   443.4130 C5            1 RES     
   13335 C5        -489.8781  -370.8725   444.1656 C5            1 RES     
   13336 C5        -489.2541  -372.1357   444.7455 C5            1 RES     
   13337 C5        -484.1886  -368.0615   439.8678 C5            1 RES     
   13338 C0        -483.2039  -368.7189   440.9197 C0            1 RES     
   13339 C5        -481.9075  -369.2306   440.1554 C5            1 RES     
   13340 C5        -481.4936  -370.7332   440.3325 C5            1 RES     
   13341 C5        -480.5918  -371.0089   441.5704 C5            1 RES     
   13342 C5        -479.1096  -370.5950   441.4107 C5            1 RES     
   13343 C5        -478.3205  -370.6184   442.7346 C5            1 RES     
   13344 C5        -478.0432  -372.0155   443.3114 C5            1 RES     
   13345 C5        -477.1525  -372.9112   442.4288 C5            1 RES     
   13346 C5        -475.7743  -372.3034   442.1491 C5            1 RES     
   13347 C5        -480.9272  -371.3864   439.0124 C5            1 RES     
   13348 C5        -479.8796  -370.5680   438.2081 C5            1 RES     
   13349 C5        -479.1944  -371.3500   437.0650 C5            1 RES     
   13350 C5        -480.1387  -371.8478   435.9527 C5            1 RES     
   13351 C5        -479.3921  -372.5710   434.8049 C5            1 RES     
   13352 C5        -478.4715  -371.6415   433.9836 C5            1 RES     
   13353 C5        -477.7147  -372.3543   432.8466 C5            1 RES     
   13354 C5        -478.6240  -372.9159   431.7536 C5            1 RES     
   13355 H6        -489.5297  -360.4568   438.3426 H6            1 RES     
   13356 H6        -490.1028  -359.0598   439.3118 H6            1 RES     
   13357 H6        -490.9891  -360.6279   439.4027 H6            1 RES     
   13358 H6        -488.1050  -360.0976   440.3977 H6            1 RES     
   13359 H6        -489.5818  -360.2104   441.4188 H6            1 RES     
   13360 H6        -488.3681  -362.3060   441.5426 H6            1 RES     
   13361 H6        -489.9409  -362.5779   440.7097 H6            1 RES     
   13362 H6        -487.1676  -362.2589   439.3777 H6            1 RES     
   13363 H6        -488.7030  -362.5610   438.4727 H6            1 RES     
   13364 H6        -487.5249  -364.3935   440.6218 H6            1 RES     
   13365 H6        -489.0016  -364.7435   439.6383 H6            1 RES     
   13366 H6        -487.5515  -364.6814   437.5312 H6            1 RES     
   13367 H6        -486.1293  -364.3455   438.5768 H6            1 RES     
   13368 H6        -487.7568  -366.9852   438.4790 H6            1 RES     
   13369 H6        -486.0658  -366.6568   437.9417 H6            1 RES     
   13370 H6        -487.2107  -366.6035   440.7927 H6            1 RES     
   13371 H6        -485.6217  -365.9264   440.3993 H6            1 RES     
   13372 H6        -485.4405  -368.0279   441.3384 H6            1 RES     
   13373 H6        -487.1020  -369.4520   439.3439 H6            1 RES     
   13374 H6        -485.8290  -370.2841   440.3221 H6            1 RES     
   13375 H6        -486.6195  -369.4397   442.3821 H6            1 RES     
   13376 H6        -487.9635  -368.4947   441.5451 H6            1 RES     
   13377 H6        -487.7907  -371.4810   442.1661 H6            1 RES     
   13378 H6        -489.1657  -370.6469   441.3202 H6            1 RES     
   13379 H6        -488.0282  -369.7907   444.1083 H6            1 RES     
   13380 H6        -489.3914  -369.0319   443.2260 H6            1 RES     
   13381 H6        -490.7426  -371.1129   443.5142 H6            1 RES     
   13382 H6        -490.2494  -370.2728   445.0287 H6            1 RES     
   13383 H6        -488.4143  -371.8707   445.4259 H6            1 RES     
   13384 H6        -488.8849  -372.7997   443.9402 H6            1 RES     
   13385 H6        -490.0212  -372.6749   445.3416 H6            1 RES     
   13386 H6        -483.8031  -367.0273   439.7359 H6            1 RES     
   13387 H6        -484.1871  -368.5381   438.8638 H6            1 RES     
   13388 H6        -482.1868  -369.2038   439.0850 H6            1 RES     
   13389 H6        -481.0580  -368.5202   440.1936 H6            1 RES     
   13390 H6        -482.4389  -371.2882   440.5282 H6            1 RES     
   13391 H6        -481.0580  -370.4981   442.4386 H6            1 RES     
   13392 H6        -480.6027  -372.0990   441.7871 H6            1 RES     
   13393 H6        -478.5980  -371.2401   440.6713 H6            1 RES     
   13394 H6        -479.0607  -369.5629   441.0158 H6            1 RES     
   13395 H6        -477.3534  -370.0988   442.5781 H6            1 RES     
   13396 H6        -478.8669  -370.0313   443.5009 H6            1 RES     
   13397 H6        -479.0044  -372.5346   443.5096 H6            1 RES     
   13398 H6        -477.5298  -371.8792   444.2884 H6            1 RES     
   13399 H6        -477.6557  -373.1395   441.4668 H6            1 RES     
   13400 H6        -477.0022  -373.8716   442.9666 H6            1 RES     
   13401 H6        -475.2521  -372.0694   443.1015 H6            1 RES     
   13402 H6        -475.1591  -373.0262   441.5742 H6            1 RES     
   13403 H6        -475.8581  -371.3799   441.5398 H6            1 RES     
   13404 H6        -481.7802  -371.5418   438.3171 H6            1 RES     
   13405 H6        -480.5285  -372.3929   439.2653 H6            1 RES     
   13406 H6        -479.0584  -370.2226   438.8501 H6            1 RES     
   13407 H6        -480.3557  -369.6561   437.7888 H6            1 RES     
   13408 H6        -478.4502  -370.6572   436.6246 H6            1 RES     
   13409 H6        -478.6456  -372.2183   437.4925 H6            1 RES     
   13410 H6        -480.7153  -370.9969   435.5295 H6            1 RES     
   13411 H6        -480.8529  -372.5703   436.3971 H6            1 RES     
   13412 H6        -478.8020  -373.4179   435.2187 H6            1 RES     
   13413 H6        -480.1642  -372.9903   434.1233 H6            1 RES     
   13414 H6        -477.6963  -371.2111   434.6481 H6            1 RES     
   13415 H6        -479.0692  -370.8066   433.5570 H6            1 RES     
   13416 H6        -477.0368  -371.6119   432.3701 H6            1 RES     
   13417 H6        -477.0883  -373.1720   433.2638 H6            1 RES     
   13418 H6        -479.2843  -373.7128   432.1503 H6            1 RES     
   13419 H6        -477.9985  -373.3604   430.9498 H6            1 RES     
   13420 H6        -479.2417  -372.1059   431.3110 H6            1 RES     
   13421 C0        -495.3611  -364.5824   443.6572 C0            1 RES     
   13422 C0        -496.0279  -363.5080   444.6080 C0            1 RES     
   13423 C0        -495.1176  -362.5933   445.0184 C0            1 RES     
   13424 S1        -495.7503  -361.3898   446.0023 S1            1 RES     
   13425 C0        -497.3259  -362.0227   445.9353 C0            1 RES     
   13426 C0        -497.2848  -363.2182   445.2035 C0            1 RES     
   13427 C0        -493.8322  -362.9602   444.5522 C0            1 RES     
   13428 C0        -493.9333  -364.0523   443.8292 C0            1 RES     
   13429 C0        -492.6358  -364.5781   443.5094 C0            1 RES     
   13430 C0        -491.6251  -363.8092   444.0572 C0            1 RES     
   13431 S1        -492.2021  -362.3458   444.9348 S1            1 RES     
   13432 H2        -498.1588  -363.8055   445.0895 H2            1 RES     
   13433 H2        -492.4808  -365.5050   443.0433 H2            1 RES     
   13434 N3        -501.0025  -361.2504   446.5085 N3            1 RES     
   13435 C0        -499.8551  -361.8676   446.1091 C0            1 RES     
   13436 C0        -498.5741  -361.3717   446.4701 C0            1 RES     
   13437 C0        -498.5583  -360.2131   447.2763 C0            1 RES     
   13438 N3        -497.4327  -359.5992   447.7250 N3            1 RES     
   13439 S1        -498.0364  -358.3325   448.5950 S1            1 RES     
   13440 N3        -499.6707  -358.4884   448.4447 N3            1 RES     
   13441 C0        -499.7838  -359.6015   447.6727 C0            1 RES     
   13442 C0        -500.9984  -360.1326   447.2753 C0            1 RES     
   13443 H4        -499.9613  -362.7277   445.4811 H4            1 RES     
   13444 C5        -500.8054  -355.0836   443.5965 C5            1 RES     
   13445 C5        -499.8692  -355.9168   444.4717 C5            1 RES     
   13446 C5        -500.0201  -357.4310   444.2469 C5            1 RES     
   13447 C5        -499.5874  -357.8866   442.8411 C5            1 RES     
   13448 C5        -499.7214  -359.4099   442.6934 C5            1 RES     
   13449 C5        -499.1514  -359.8966   441.3429 C5            1 RES     
   13450 C5        -499.1944  -361.4334   441.1305 C5            1 RES     
   13451 C5        -498.5820  -362.1633   442.3272 C5            1 RES     
   13452 C5        -498.1614  -363.6424   442.1366 C5            1 RES     
   13453 C5        -499.2751  -364.7482   441.9772 C5            1 RES     
   13454 C5        -499.9248  -364.9250   443.3777 C5            1 RES     
   13455 C5        -501.0193  -365.9149   443.7936 C5            1 RES     
   13456 C5        -501.2308  -365.6497   445.3208 C5            1 RES     
   13457 C5        -502.2743  -366.4872   446.0580 C5            1 RES     
   13458 C5        -501.8560  -367.9413   446.2379 C5            1 RES     
   13459 C5        -496.8142  -363.7768   441.4122 C5            1 RES     
   13460 C0        -495.8485  -364.8272   442.0993 C0            1 RES     
   13461 C5        -494.8188  -365.3615   441.0126 C5            1 RES     
   13462 C5        -494.7140  -366.9118   440.7974 C5            1 RES     
   13463 C5        -493.7193  -367.6272   441.7567 C5            1 RES     
   13464 C5        -492.2231  -367.4534   441.4032 C5            1 RES     
   13465 C5        -491.2706  -367.9283   442.5181 C5            1 RES     
   13466 C5        -491.2162  -369.4488   442.7343 C5            1 RES     
   13467 C5        -490.6778  -370.2509   441.5337 C5            1 RES     
   13468 C5        -489.2584  -369.8451   441.1244 C5            1 RES     
   13469 C5        -494.5017  -367.3215   439.2883 C5            1 RES     
   13470 C5        -493.4339  -366.5319   438.4818 C5            1 RES     
   13471 C5        -493.1082  -367.1276   437.0936 C5            1 RES     
   13472 C5        -494.2908  -367.1736   436.1056 C5            1 RES     
   13473 C5        -493.8939  -367.7226   434.7131 C5            1 RES     
   13474 C5        -492.9275  -366.8006   433.9372 C5            1 RES     
   13475 C5        -492.5170  -367.3442   432.5553 C5            1 RES     
   13476 C5        -493.6765  -367.4618   431.5661 C5            1 RES     
   13477 H6        -500.5721  -355.2132   442.5205 H6            1 RES     
   13478 H6        -500.6838  -354.0083   443.8453 H6            1 RES     
   13479 H6        -501.8614  -355.3730   443.7835 H6            1 RES     
   13480 H6        -498.8161  -355.6076   444.2933 H6            1 RES     
   13481 H6        -500.1154  -355.6994   445.5341 H6            1 RES     
   13482 H6        -499.3729  -357.9437   444.9935 H6            1 RES     
   13483 H6        -501.0728  -357.7301   444.4403 H6            1 RES     
   13484 H6        -498.5234  -357.5946   442.6942 H6            1 RES     
   13485 H6        -500.2043  -357.3994   442.0586 H6            1 RES     
   13486 H6        -499.1408  -359.8671   443.5228 H6            1 RES     
   13487 H6        -500.7868  -359.7093   442.7907 H6            1 RES     
   13488 H6        -499.6845  -359.4033   440.5021 H6            1 RES     
   13489 H6        -498.0849  -359.5798   441.3014 H6            1 RES     
   13490 H6        -500.2351  -361.7937   440.9826 H6            1 RES     
   13491 H6        -498.6113  -361.6484   440.2091 H6            1 RES     
   13492 H6        -499.2844  -362.0742   443.1768 H6            1 RES     
   13493 H6        -497.6634  -361.6121   442.6320 H6            1 RES     
   13494 H6        -497.7988  -363.8748   443.0712 H6            1 RES     
   13495 H6        -500.0021  -364.4708   441.1852 H6            1 RES     
   13496 H6        -498.8062  -365.7211   441.7108 H6            1 RES     
   13497 H6        -499.0848  -365.2652   444.0121 H6            1 RES     
   13498 H6        -500.3044  -363.9281   443.6587 H6            1 RES     
   13499 H6        -500.6840  -366.9592   443.6139 H6            1 RES     
   13500 H6        -501.9585  -365.7205   443.2354 H6            1 RES     
   13501 H6        -500.2653  -365.7640   445.8682 H6            1 RES     
   13502 H6        -501.5498  -364.5906   445.4371 H6            1 RES     
   13503 H6        -503.2567  -366.4109   445.5496 H6            1 RES     
   13504 H6        -502.3772  -366.0543   447.0800 H6            1 RES     
   13505 H6        -500.8880  -367.9967   446.7839 H6            1 RES     
   13506 H6        -501.7604  -368.4490   445.2588 H6            1 RES     
   13507 H6        -502.6240  -368.4637   446.8476 H6            1 RES     
   13508 H6        -496.2405  -362.8248   441.4221 H6            1 RES     
   13509 H6        -497.0629  -363.9939   440.3509 H6            1 RES     
   13510 H6        -495.2409  -365.0328   440.0440 H6            1 RES     
   13511 H6        -493.8410  -364.8407   441.0309 H6            1 RES     
   13512 H6        -495.7166  -367.3230   441.0537 H6            1 RES     
   13513 H6        -493.9321  -367.2637   442.7837 H6            1 RES     
   13514 H6        -493.9308  -368.7183   441.7450 H6            1 RES     
   13515 H6        -491.9761  -367.9836   440.4639 H6            1 RES     
   13516 H6        -492.0136  -366.3820   441.2247 H6            1 RES     
   13517 H6        -490.2487  -367.5641   442.2880 H6            1 RES     
   13518 H6        -491.5596  -367.4537   443.4782 H6            1 RES     
   13519 H6        -492.2260  -369.8236   443.0034 H6            1 RES     
   13520 H6        -490.5470  -369.6406   443.6015 H6            1 RES     
   13521 H6        -491.3546  -370.1525   440.6602 H6            1 RES     
   13522 H6        -490.6585  -371.3226   441.8257 H6            1 RES     
   13523 H6        -488.5634  -369.9392   441.9862 H6            1 RES     
   13524 H6        -488.9036  -370.5069   440.3073 H6            1 RES     
   13525 H6        -489.2319  -368.8034   440.7435 H6            1 RES     
   13526 H6        -495.4613  -367.1554   438.7529 H6            1 RES     
   13527 H6        -494.2944  -368.4131   439.2498 H6            1 RES     
   13528 H6        -492.4722  -366.4982   439.0108 H6            1 RES     
   13529 H6        -493.7607  -365.4777   438.3561 H6            1 RES     
   13530 H6        -492.3065  -366.4913   436.6689 H6            1 RES     
   13531 H6        -492.7007  -368.1548   437.2220 H6            1 RES     
   13532 H6        -494.7283  -366.1590   435.9831 H6            1 RES     
   13533 H6        -495.0693  -367.8445   436.5223 H6            1 RES     
   13534 H6        -493.4439  -368.7335   434.8248 H6            1 RES     
   13535 H6        -494.8298  -367.8262   434.1216 H6            1 RES     
   13536 H6        -491.9888  -366.6830   434.5139 H6            1 RES     
   13537 H6        -493.3894  -365.7969   433.8122 H6            1 RES     
   13538 H6        -491.7741  -366.6403   432.1188 H6            1 RES     
   13539 H6        -492.0252  -368.3342   432.6692 H6            1 RES     
   13540 H6        -494.4259  -368.2019   431.9114 H6            1 RES     
   13541 H6        -493.2862  -367.8051   430.5839 H6            1 RES     
   13542 H6        -494.1653  -366.4746   431.4245 H6            1 RES     
   13543 C0        -506.3000  -359.3965   447.9023 C0            1 RES     
   13544 C0        -506.5738  -358.4790   449.1617 C0            1 RES     
   13545 C0        -505.4387  -357.8619   449.5672 C0            1 RES     
   13546 S1        -505.6472  -356.8350   450.8782 S1            1 RES     
   13547 C0        -507.3138  -357.1479   450.9874 C0            1 RES     
   13548 C0        -507.6377  -358.1234   450.0336 C0            1 RES     
   13549 C0        -504.3447  -358.3268   448.7983 C0            1 RES     
   13550 C0        -504.7825  -359.1809   447.9013 C0            1 RES     
   13551 C0        -503.6892  -359.8345   447.2383 C0            1 RES     
   13552 C0        -502.4679  -359.4069   447.7267 C0            1 RES     
   13553 S1        -502.5828  -358.1161   448.9779 S1            1 RES     
   13554 H2        -508.6241  -358.5044   449.9724 H2            1 RES     
   13555 H2        -503.8064  -360.6364   446.5724 H2            1 RES     
   13556 N3        -510.6145  -355.9024   452.4004 N3            1 RES     
   13557 C0        -509.6974  -356.5981   451.6712 C0            1 RES     
   13558 C0        -508.3010  -356.4343   451.8729 C0            1 RES     
   13559 C0        -507.9191  -355.5216   452.8797 C0            1 RES     
   13560 N3        -506.6347  -355.2387   453.2194 N3            1 RES     
   13561 S1        -506.8185  -354.1294   454.4284 S1            1 RES     
   13562 N3        -508.4522  -353.9564   454.5659 N3            1 RES     
   13563 C0        -508.9133  -354.8168   453.6199 C0            1 RES     
   13564 C0        -510.2584  -355.0172   453.3633 C0            1 RES     
   13565 H4        -510.0765  -357.2521   450.9135 H4            1 RES     
   13566 C5        -509.5364  -349.3529   450.8220 C5            1 RES     
   13567 C5        -508.6812  -350.5209   451.3130 C5            1 RES     
   13568 C5        -509.1836  -351.8878   450.8179 C5            1 RES     
   13569 C5        -509.0709  -352.0649   449.2926 C5            1 RES     
   13570 C5        -509.5476  -353.4618   448.8664 C5            1 RES     
   13571 C5        -509.3006  -353.7059   447.3614 C5            1 RES     
   13572 C5        -509.7019  -355.1162   446.8529 C5            1 RES     
   13573 C5        -509.0898  -356.2052   447.7357 C5            1 RES     
   13574 C5        -509.0279  -357.6467   447.1711 C5            1 RES     
   13575 C5        -510.3632  -358.4704   447.0066 C5            1 RES     
   13576 C5        -510.8215  -358.8582   448.4399 C5            1 RES     
   13577 C5        -512.0286  -359.7112   448.8478 C5            1 RES     
   13578 C5        -511.9505  -359.7836   450.4085 C5            1 RES     
   13579 C5        -513.0283  -360.5762   451.1461 C5            1 RES     
   13580 C5        -512.9085  -362.0814   450.9426 C5            1 RES     
   13581 C5        -507.8626  -357.8390   446.1896 C5            1 RES     
   13582 C0        -507.0530  -359.1749   446.4503 C0            1 RES     
   13583 C5        -506.3334  -359.6076   445.1006 C5            1 RES     
   13584 C5        -506.5953  -361.0561   444.5583 C5            1 RES     
   13585 C5        -505.6459  -362.1416   445.1429 C5            1 RES     
   13586 C5        -504.2161  -362.1536   444.5518 C5            1 RES     
   13587 C5        -503.2332  -363.0390   445.3427 C5            1 RES     
   13588 C5        -503.4736  -364.5527   445.2304 C5            1 RES     
   13589 C5        -503.3024  -365.1281   443.8112 C5            1 RES     
   13590 C5        -501.9055  -364.8917   443.2284 C5            1 RES     
   13591 C5        -506.7007  -361.1262   442.9854 C5            1 RES     
   13592 C5        -505.6200  -360.3671   442.1668 C5            1 RES     
   13593 C5        -505.6378  -360.6636   440.6504 C5            1 RES     
   13594 C5        -506.9355  -360.2657   439.9193 C5            1 RES     
   13595 C5        -506.8752  -360.5290   438.3945 C5            1 RES     
   13596 C5        -505.8596  -359.6330   437.6518 C5            1 RES     
   13597 C5        -505.7835  -359.8960   436.1356 C5            1 RES     
   13598 C5        -507.0744  -359.5703   435.3845 C5            1 RES     
   13599 H6        -509.4977  -349.2620   449.7178 H6            1 RES     
   13600 H6        -509.1525  -348.4059   451.2564 H6            1 RES     
   13601 H6        -510.5904  -349.4889   451.1453 H6            1 RES     
   13602 H6        -507.6245  -350.3675   451.0026 H6            1 RES     
   13603 H6        -508.7156  -350.5224   452.4245 H6            1 RES     
   13604 H6        -508.5580  -352.6683   451.3062 H6            1 RES     
   13605 H6        -510.2356  -352.0352   451.1448 H6            1 RES     
   13606 H6        -508.0026  -351.9373   449.0068 H6            1 RES     
   13607 H6        -509.6780  -351.3055   448.7587 H6            1 RES     
   13608 H6        -508.9621  -354.1973   449.4582 H6            1 RES     
   13609 H6        -510.6260  -353.5844   449.1033 H6            1 RES     
   13610 H6        -509.8342  -352.9414   446.7568 H6            1 RES     
   13611 H6        -508.2092  -353.5801   447.1814 H6            1 RES     
   13612 H6        -510.8057  -355.2431   446.8373 H6            1 RES     
   13613 H6        -509.3209  -355.2049   445.8126 H6            1 RES     
   13614 H6        -509.6236  -356.1988   448.7044 H6            1 RES     
   13615 H6        -508.0399  -355.9117   447.9643 H6            1 RES     
   13616 H6        -508.5893  -358.1543   447.9514 H6            1 RES     
   13617 H6        -511.1229  -357.8899   446.4422 H6            1 RES     
   13618 H6        -510.1576  -359.4188   446.4628 H6            1 RES     
   13619 H6        -509.9894  -359.4811   448.8185 H6            1 RES     
   13620 H6        -510.9335  -357.9061   448.9854 H6            1 RES     
   13621 H6        -511.9544  -360.7250   448.3983 H6            1 RES     
   13622 H6        -512.9764  -359.2284   448.5316 H6            1 RES     
   13623 H6        -510.9617  -360.1919   450.7255 H6            1 RES     
   13624 H6        -512.0151  -358.7434   450.7970 H6            1 RES     
   13625 H6        -514.0358  -360.2104   450.8620 H6            1 RES     
   13626 H6        -512.8842  -360.3873   452.2351 H6            1 RES     
   13627 H6        -511.9049  -362.4336   451.2698 H6            1 RES     
   13628 H6        -513.0693  -362.3507   449.8809 H6            1 RES     
   13629 H6        -513.6717  -362.5910   451.5690 H6            1 RES     
   13630 H6        -507.1037  -357.0322   446.2828 H6            1 RES     
   13631 H6        -508.3059  -357.7508   445.1743 H6            1 RES     
   13632 H6        -506.8138  -358.9895   444.3186 H6            1 RES     
   13633 H6        -505.2752  -359.2855   445.0366 H6            1 RES     
   13634 H6        -507.6135  -361.3343   444.9131 H6            1 RES     
   13635 H6        -505.6221  -362.0010   446.2437 H6            1 RES     
   13636 H6        -506.0851  -363.1443   444.9502 H6            1 RES     
   13637 H6        -504.2297  -362.4803   443.4946 H6            1 RES     
   13638 H6        -503.8113  -361.1242   444.5583 H6            1 RES     
   13639 H6        -502.2025  -362.8153   444.9998 H6            1 RES     
   13640 H6        -503.2690  -362.7630   446.4165 H6            1 RES     
   13641 H6        -504.4891  -364.7978   445.6062 H6            1 RES     
   13642 H6        -502.7403  -365.0591   445.8955 H6            1 RES     
   13643 H6        -504.0640  -364.7081   443.1225 H6            1 RES     
   13644 H6        -503.4697  -366.2248   443.8697 H6            1 RES     
   13645 H6        -501.1272  -365.3080   443.9033 H6            1 RES     
   13646 H6        -501.8251  -365.3920   442.2412 H6            1 RES     
   13647 H6        -501.7136  -363.8105   443.0697 H6            1 RES     
   13648 H6        -507.6710  -360.6723   442.6893 H6            1 RES     
   13649 H6        -506.7395  -362.1964   442.6865 H6            1 RES     
   13650 H6        -504.6060  -360.6290   442.4971 H6            1 RES     
   13651 H6        -505.7289  -359.2728   442.3235 H6            1 RES     
   13652 H6        -504.7904  -360.0951   440.2183 H6            1 RES     
   13653 H6        -505.4448  -361.7469   440.4864 H6            1 RES     
   13654 H6        -507.1593  -359.1907   440.0922 H6            1 RES     
   13655 H6        -507.7691  -360.8694   440.3322 H6            1 RES     
   13656 H6        -506.6402  -361.6002   438.2097 H6            1 RES     
   13657 H6        -507.8885  -360.3236   437.9852 H6            1 RES     
   13658 H6        -504.8428  -359.8220   438.0494 H6            1 RES     
   13659 H6        -506.1096  -358.5634   437.8247 H6            1 RES     
   13660 H6        -504.9801  -359.2499   435.7173 H6            1 RES     
   13661 H6        -505.5033  -360.9550   435.9492 H6            1 RES     
   13662 H6        -507.9052  -360.2283   435.7092 H6            1 RES     
   13663 H6        -506.9160  -359.7333   434.2968 H6            1 RES     
   13664 H6        -507.3563  -358.5079   435.5433 H6            1 RES     
   13665 C0        -515.1281  -353.5344   455.1324 C0            1 RES     
   13666 C0        -515.0104  -352.9090   456.5808 C0            1 RES     
   13667 C0        -513.7226  -352.6145   456.8779 C0            1 RES     
   13668 S1        -513.5108  -351.9082   458.3856 S1            1 RES     
   13669 C0        -515.1709  -351.9413   458.7466 C0            1 RES     
   13670 C0        -515.8330  -352.5902   457.6945 C0            1 RES     
   13671 C0        -512.8790  -353.0677   455.8352 C0            1 RES     
   13672 C0        -513.6168  -353.5939   454.8841 C0            1 RES     
   13673 C0        -512.7986  -354.2524   453.9048 C0            1 RES     
   13674 C0        -511.4557  -354.1737   454.2264 C0            1 RES     
   13675 S1        -511.1060  -353.2175   455.7124 S1            1 RES     
   13676 H2        -516.8760  -352.7669   457.7474 H2            1 RES     
   13677 H2        -513.1815  -354.8399   453.1248 H2            1 RES     
   13678 N3        -517.8834  -350.5089   460.9900 N3            1 RES     
   13679 C0        -517.2542  -351.1610   459.9723 C0            1 RES     
   13680 C0        -515.8410  -351.2970   459.9313 C0            1 RES     
   13681 C0        -515.1284  -350.7310   461.0105 C0            1 RES     
   13682 N3        -513.7774  -350.7663   461.1478 N3            1 RES     
   13683 S1        -513.5394  -349.9614   462.5695 S1            1 RES     
   13684 N3        -515.0597  -349.5428   463.0502 N3            1 RES     
   13685 C0        -515.8285  -350.0593   462.0553 C0            1 RES     
   13686 C0        -517.2082  -349.9543   462.0263 C0            1 RES     
   13687 H4        -517.8720  -351.5396   459.1846 H4            1 RES     
   13688 C5        -515.6759  -344.0651   460.6007 C5            1 RES     
   13689 C5        -515.0271  -345.4474   460.6704 C5            1 RES     
   13690 C5        -515.8775  -346.5478   460.0133 C5            1 RES     
   13691 C5        -516.0317  -346.3745   458.4911 C5            1 RES     
   13692 C5        -516.8535  -347.5245   457.8891 C5            1 RES     
   13693 C5        -516.8895  -347.4434   456.3471 C5            1 RES     
   13694 C5        -517.6536  -348.5998   455.6489 C5            1 RES     
   13695 C5        -517.1648  -349.9571   456.1574 C5            1 RES     
   13696 C5        -517.4964  -351.2112   455.3100 C5            1 RES     
   13697 C5        -518.9862  -351.7253   455.2407 C5            1 RES     
   13698 C5        -519.3000  -352.3561   456.6257 C5            1 RES     
   13699 C5        -520.5876  -353.0566   457.0753 C5            1 RES     
   13700 C5        -520.2972  -353.5102   458.5441 C5            1 RES     
   13701 C5        -521.3984  -354.2540   459.2977 C5            1 RES     
   13702 C5        -521.6345  -355.6648   458.7730 C5            1 RES     
   13703 C5        -516.5572  -351.3658   454.1050 C5            1 RES     
   13704 C0        -516.0224  -352.8459   453.9280 C0            1 RES     
   13705 C5        -515.6193  -353.0647   452.4060 C5            1 RES     
   13706 C5        -516.2618  -354.2741   451.6409 C5            1 RES     
   13707 C5        -515.4907  -355.6163   451.7989 C5            1 RES     
   13708 C5        -514.1999  -355.7377   450.9546 C5            1 RES     
   13709 C5        -513.3230  -356.9437   451.3451 C5            1 RES     
   13710 C5        -513.8953  -358.3212   450.9754 C5            1 RES     
   13711 C5        -514.0626  -358.5638   449.4628 C5            1 RES     
   13712 C5        -512.7491  -358.4442   448.6834 C5            1 RES     
   13713 C5        -516.6109  -353.9489   450.1366 C5            1 RES     
   13714 C5        -515.5260  -353.2185   449.2979 C5            1 RES     
   13715 C5        -515.8305  -353.1383   447.7850 C5            1 RES     
   13716 C5        -517.1067  -352.3573   447.4132 C5            1 RES     
   13717 C5        -517.3299  -352.2573   445.8841 C5            1 RES     
   13718 C5        -516.2674  -351.4025   445.1585 C5            1 RES     
   13719 C5        -516.4740  -351.3069   443.6347 C5            1 RES     
   13720 C5        -517.7620  -350.5913   443.2276 C5            1 RES     
   13721 H6        -515.7822  -343.7227   459.5518 H6            1 RES     
   13722 H6        -515.0386  -343.3307   461.1369 H6            1 RES     
   13723 H6        -516.6750  -344.0873   461.0857 H6            1 RES     
   13724 H6        -514.0197  -345.4121   460.2008 H6            1 RES     
   13725 H6        -514.8964  -345.7068   461.7437 H6            1 RES     
   13726 H6        -515.3680  -347.5191   460.2032 H6            1 RES     
   13727 H6        -516.8766  -346.5821   460.4989 H6            1 RES     
   13728 H6        -515.0151  -346.3717   458.0377 H6            1 RES     
   13729 H6        -516.5346  -345.4157   458.2497 H6            1 RES     
   13730 H6        -516.3579  -348.4703   458.1953 H6            1 RES     
   13731 H6        -517.8862  -347.5090   458.2986 H6            1 RES     
   13732 H6        -517.3307  -346.4759   456.0246 H6            1 RES     
   13733 H6        -515.8352  -347.4715   455.9905 H6            1 RES     
   13734 H6        -518.7488  -348.5240   455.8198 H6            1 RES     
   13735 H6        -517.4582  -348.5041   454.5590 H6            1 RES     
   13736 H6        -517.5358  -350.0878   457.1911 H6            1 RES     
   13737 H6        -516.0544  -349.9150   456.2351 H6            1 RES     
   13738 H6        -517.0661  -351.9584   455.8717 H6            1 RES     
   13739 H6        -519.6792  -350.9036   454.9627 H6            1 RES     
   13740 H6        -519.0707  -352.5383   454.4861 H6            1 RES     
   13741 H6        -518.5736  -353.1869   456.7028 H6            1 RES     
   13742 H6        -519.1241  -351.5563   457.3647 H6            1 RES     
   13743 H6        -520.7990  -353.9315   456.4233 H6            1 RES     
   13744 H6        -521.4464  -352.3543   457.0519 H6            1 RES     
   13745 H6        -519.3827  -354.1488   458.5756 H6            1 RES     
   13746 H6        -520.0799  -352.5973   459.1411 H6            1 RES     
   13747 H6        -522.3351  -353.6606   459.2927 H6            1 RES     
   13748 H6        -521.0580  -354.3574   460.3541 H6            1 RES     
   13749 H6        -520.6923  -356.2548   458.8229 H6            1 RES     
   13750 H6        -522.0041  -355.6418   457.7297 H6            1 RES     
   13751 H6        -522.3878  -356.1669   459.4171 H6            1 RES     
   13752 H6        -515.6382  -350.7500   454.2130 H6            1 RES     
   13753 H6        -517.1164  -350.9627   453.2332 H6            1 RES     
   13754 H6        -516.0666  -352.2043   451.8732 H6            1 RES     
   13755 H6        -514.5380  -352.9271   452.2070 H6            1 RES     
   13756 H6        -517.2521  -354.4459   452.1202 H6            1 RES     
   13757 H6        -515.2750  -355.7477   452.8798 H6            1 RES     
   13758 H6        -516.1575  -356.4517   451.4941 H6            1 RES     
   13759 H6        -514.4389  -355.7964   449.8758 H6            1 RES     
   13760 H6        -513.5880  -354.8266   451.0927 H6            1 RES     
   13761 H6        -512.3306  -356.8290   450.8637 H6            1 RES     
   13762 H6        -513.1401  -356.9288   452.4391 H6            1 RES     
   13763 H6        -514.8727  -358.4669   451.4811 H6            1 RES     
   13764 H6        -513.1971  -359.0915   451.3702 H6            1 RES     
   13765 H6        -514.8100  -357.8655   449.0333 H6            1 RES     
   13766 H6        -514.4498  -359.5963   449.3279 H6            1 RES     
   13767 H6        -511.9868  -359.1385   449.0972 H6            1 RES     
   13768 H6        -512.9242  -358.7017   447.6183 H6            1 RES     
   13769 H6        -512.3562  -357.4070   448.7142 H6            1 RES     
   13770 H6        -517.4946  -353.2750   450.1309 H6            1 RES     
   13771 H6        -516.9212  -354.8936   449.6393 H6            1 RES     
   13772 H6        -514.5540  -353.7247   449.3670 H6            1 RES     
   13773 H6        -515.3741  -352.1910   449.6919 H6            1 RES     
   13774 H6        -514.9545  -352.6409   447.3233 H6            1 RES     
   13775 H6        -515.8999  -354.1682   447.3701 H6            1 RES     
   13776 H6        -517.0674  -351.3320   447.8408 H6            1 RES     
   13777 H6        -517.9796  -352.8862   447.8466 H6            1 RES     
   13778 H6        -517.3592  -353.2779   445.4435 H6            1 RES     
   13779 H6        -518.3250  -351.7863   445.7273 H6            1 RES     
   13780 H6        -515.2672  -351.8556   445.3066 H6            1 RES     
   13781 H6        -516.2547  -350.3779   445.5902 H6            1 RES     
   13782 H6        -515.6219  -350.7309   443.2104 H6            1 RES     
   13783 H6        -516.4573  -352.3236   443.1864 H6            1 RES     
   13784 H6        -518.6569  -351.1516   443.5648 H6            1 RES     
   13785 H6        -517.8045  -350.5164   442.1197 H6            1 RES     
   13786 H6        -517.7837  -349.5645   443.6504 H6            1 RES     
   13787 C0        -521.3325  -348.1051   464.9610 C0            1 RES     
   13788 C0        -520.8713  -347.8722   466.4563 C0            1 RES     
   13789 C0        -519.5208  -347.8870   466.5544 C0            1 RES     
   13790 S1        -518.9427  -347.6074   468.1050 S1            1 RES     
   13791 C0        -520.4996  -347.4340   468.7634 C0            1 RES     
   13792 C0        -521.4330  -347.6881   467.7483 C0            1 RES     
   13793 C0        -518.9571  -348.2199   465.2992 C0            1 RES     
   13794 C0        -519.9225  -348.3676   464.4206 C0            1 RES     
   13795 C0        -519.4177  -348.9074   463.1893 C0            1 RES     
   13796 C0        -518.0567  -349.1438   463.2564 C0            1 RES     
   13797 S1        -517.2951  -348.6444   464.8106 S1            1 RES     
   13798 H2        -522.4702  -347.6869   467.9632 H2            1 RES     
   13799 H2        -520.0283  -349.2164   462.3943 H2            1 RES     
   13800 N3        -522.4815  -346.1234   471.7293 N3            1 RES     
   13801 C0        -522.1635  -346.6149   470.4988 C0            1 RES     
   13802 C0        -520.8340  -346.9825   470.1606 C0            1 RES     
   13803 C0        -519.8655  -346.8228   471.1751 C0            1 RES     
   13804 N3        -518.5482  -347.1258   471.0405 N3            1 RES     
   13805 S1        -517.9363  -346.7362   472.5236 S1            1 RES     
   13806 N3        -519.2439  -346.1841   473.3621 N3            1 RES     
   13807 C0        -520.2437  -346.3067   472.4493 C0            1 RES     
   13808 C0        -521.5578  -345.9578   472.7075 C0            1 RES     
   13809 H4        -522.9574  -346.6812   469.7840 H4            1 RES     
   13810 C5        -519.0302  -340.2606   472.2435 C5            1 RES     
   13811 C5        -518.6888  -341.7115   471.9045 C5            1 RES     
   13812 C5        -519.8422  -342.4579   471.2129 C5            1 RES     
   13813 C5        -520.1789  -341.9037   469.8163 C5            1 RES     
   13814 C5        -521.3072  -342.7156   469.1620 C5            1 RES     
   13815 C5        -521.5524  -342.2655   467.7049 C5            1 RES     
   13816 C5        -522.6404  -343.0707   466.9458 C5            1 RES     
   13817 C5        -522.3834  -344.5740   467.0640 C5            1 RES     
   13818 C5        -523.0968  -345.5129   466.0588 C5            1 RES     
   13819 C5        -524.6555  -345.7267   466.1735 C5            1 RES     
   13820 C5        -524.8888  -346.6035   467.4351 C5            1 RES     
   13821 C5        -526.2155  -347.1541   467.9713 C5            1 RES     
   13822 C5        -525.8151  -347.9873   469.2333 C5            1 RES     
   13823 C5        -526.9261  -348.6841   470.0168 C5            1 RES     
   13824 C5        -527.5331  -349.8662   469.2712 C5            1 RES     
   13825 C5        -522.4009  -345.5388   464.6902 C5            1 RES     
   13826 C0        -522.2269  -347.0046   464.1164 C0            1 RES     
   13827 C5        -522.1092  -346.9227   462.5333 C5            1 RES     
   13828 C5        -523.1011  -347.7839   461.6759 C5            1 RES     
   13829 C5        -522.6199  -349.2389   461.4065 C5            1 RES     
   13830 C5        -521.5240  -349.3804   460.3235 C5            1 RES     
   13831 C5        -520.8774  -350.7790   460.2847 C5            1 RES     
   13832 C5        -521.7789  -351.9071   459.7591 C5            1 RES     
   13833 C5        -522.2157  -351.7503   458.2897 C5            1 RES     
   13834 C5        -521.0369  -351.6808   457.3137 C5            1 RES     
   13835 C5        -523.5909  -347.0548   460.3648 C5            1 RES     
   13836 C5        -522.5110  -346.3476   459.5001 C5            1 RES     
   13837 C5        -523.0114  -345.8583   458.1224 C5            1 RES     
   13838 C5        -524.1317  -344.8003   458.1692 C5            1 RES     
   13839 C5        -524.5518  -344.3023   456.7643 C5            1 RES     
   13840 C5        -523.4503  -343.4994   456.0378 C5            1 RES     
   13841 C5        -523.8544  -343.0099   454.6340 C5            1 RES     
   13842 C5        -525.0054  -342.0039   454.6359 C5            1 RES     
   13843 H6        -519.2146  -339.6656   471.3265 H6            1 RES     
   13844 H6        -518.1787  -339.7979   472.7855 H6            1 RES     
   13845 H6        -519.9281  -340.2221   472.8963 H6            1 RES     
   13846 H6        -517.7778  -341.7427   471.2675 H6            1 RES     
   13847 H6        -518.4595  -342.2373   472.8571 H6            1 RES     
   13848 H6        -519.5298  -343.5203   471.0997 H6            1 RES     
   13849 H6        -520.7426  -342.4311   471.8638 H6            1 RES     
   13850 H6        -519.2636  -341.9714   469.1865 H6            1 RES     
   13851 H6        -520.4953  -340.8423   469.8761 H6            1 RES     
   13852 H6        -520.9855  -343.7788   469.1683 H6            1 RES     
   13853 H6        -522.2406  -342.6173   469.7564 H6            1 RES     
   13854 H6        -521.8193  -341.1872   467.6769 H6            1 RES     
   13855 H6        -520.5930  -342.3923   467.1545 H6            1 RES     
   13856 H6        -523.6567  -342.8472   467.3356 H6            1 RES     
   13857 H6        -522.5923  -342.7546   465.8814 H6            1 RES     
   13858 H6        -522.6169  -344.8794   468.1010 H6            1 RES     
   13859 H6        -521.2907  -344.7466   466.9341 H6            1 RES     
   13860 H6        -522.7580  -346.4355   466.3634 H6            1 RES     
   13861 H6        -525.1902  -344.7542   466.2069 H6            1 RES     
   13862 H6        -525.0223  -346.3094   465.2998 H6            1 RES     
   13863 H6        -524.3535  -347.5428   467.2006 H6            1 RES     
   13864 H6        -524.4388  -346.0457   468.2736 H6            1 RES     
   13865 H6        -526.7030  -347.7982   467.2077 H6            1 RES     
   13866 H6        -526.8982  -346.3271   468.2565 H6            1 RES     
   13867 H6        -525.0638  -348.7650   468.9581 H6            1 RES     
   13868 H6        -525.3219  -347.2950   469.9506 H6            1 RES     
   13869 H6        -527.7045  -347.9520   470.3125 H6            1 RES     
   13870 H6        -526.4635  -349.0935   470.9446 H6            1 RES     
   13871 H6        -526.7419  -350.6067   469.0182 H6            1 RES     
   13872 H6        -528.0392  -349.5316   468.3451 H6            1 RES     
   13873 H6        -528.2727  -350.3669   469.9319 H6            1 RES     
   13874 H6        -521.3658  -345.1370   464.7429 H6            1 RES     
   13875 H6        -522.9835  -344.8486   464.0426 H6            1 RES     
   13876 H6        -522.4360  -345.8956   462.2827 H6            1 RES     
   13877 H6        -521.0650  -346.9332   462.1628 H6            1 RES     
   13878 H6        -524.0233  -347.8885   462.2911 H6            1 RES     
   13879 H6        -522.2801  -349.6590   462.3761 H6            1 RES     
   13880 H6        -523.4874  -349.8479   461.0717 H6            1 RES     
   13881 H6        -521.9267  -349.1383   459.3216 H6            1 RES     
   13882 H6        -520.7181  -348.6498   460.5240 H6            1 RES     
   13883 H6        -519.9656  -350.7288   459.6554 H6            1 RES     
   13884 H6        -520.5359  -351.0567   461.3029 H6            1 RES     
   13885 H6        -522.6793  -351.9953   460.4026 H6            1 RES     
   13886 H6        -521.2110  -352.8591   459.8474 H6            1 RES     
   13887 H6        -522.8517  -350.8502   458.1628 H6            1 RES     
   13888 H6        -522.8303  -352.6369   458.0243 H6            1 RES     
   13889 H6        -520.3881  -352.5760   457.4234 H6            1 RES     
   13890 H6        -521.4183  -351.6432   456.2723 H6            1 RES     
   13891 H6        -520.4313  -350.7660   457.4790 H6            1 RES     
   13892 H6        -524.3011  -346.2547   460.6661 H6            1 RES     
   13893 H6        -524.1659  -347.7849   459.7546 H6            1 RES     
   13894 H6        -521.6703  -347.0179   459.2769 H6            1 RES     
   13895 H6        -522.0866  -345.4861   460.0583 H6            1 RES     
   13896 H6        -522.1274  -345.4268   457.6122 H6            1 RES     
   13897 H6        -523.3597  -346.7316   457.5277 H6            1 RES     
   13898 H6        -523.8116  -343.9291   458.7809 H6            1 RES     
   13899 H6        -525.0237  -345.2557   458.6452 H6            1 RES     
   13900 H6        -524.8633  -345.1678   456.1392 H6            1 RES     
   13901 H6        -525.4352  -343.6408   456.9006 H6            1 RES     
   13902 H6        -522.5593  -344.1426   455.8958 H6            1 RES     
   13903 H6        -523.1552  -342.6251   456.6583 H6            1 RES     
   13904 H6        -522.9711  -342.5079   454.1803 H6            1 RES     
   13905 H6        -524.1218  -343.8777   453.9934 H6            1 RES     
   13906 H6        -525.9395  -342.4626   455.0173 H6            1 RES     
   13907 H6        -525.1940  -341.6617   453.5956 H6            1 RES     
   13908 H6        -524.7445  -341.1195   455.2549 H6            1 RES     
   13909 C0        -524.7120  -344.1660   476.6929 C0            1 RES     
   13910 C0        -523.9960  -344.3794   478.0874 C0            1 RES     
   13911 C0        -522.6805  -344.6533   477.9194 C0            1 RES     
   13912 S1        -521.8335  -344.8558   479.3541 S1            1 RES     
   13913 C0        -523.2026  -344.5739   480.3202 C0            1 RES     
   13914 C0        -524.3082  -344.4121   479.4730 C0            1 RES     
   13915 C0        -522.3927  -344.7720   476.5384 C0            1 RES     
   13916 C0        -523.4863  -344.5353   475.8500 C0            1 RES     
   13917 C0        -523.2960  -344.8469   474.4612 C0            1 RES     
   13918 C0        -522.0223  -345.3271   474.2163 C0            1 RES     
   13919 S1        -520.9506  -345.3525   475.6640 S1            1 RES     
   13920 H2        -525.2778  -344.2804   479.8787 H2            1 RES     
   13921 H2        -524.0691  -344.8464   473.7522 H2            1 RES     
   13922 N3        -524.3984  -343.6791   483.8148 N3            1 RES     
   13923 C0        -524.3781  -343.9121   482.4723 C0            1 RES     
   13924 C0        -523.2227  -344.4159   481.8177 C0            1 RES     
   13925 C0        -522.1035  -344.6738   482.6384 C0            1 RES     
   13926 N3        -520.9160  -345.1620   482.1947 N3            1 RES     
   13927 S1        -520.0228  -345.2492   483.5805 S1            1 RES     
   13928 N3        -521.0437  -344.6919   484.7488 N3            1 RES     
   13929 C0        -522.1702  -344.4171   484.0393 C0            1 RES     
   13930 C0        -523.3265  -343.9151   484.6104 C0            1 RES     
   13931 H4        -525.2644  -343.6667   481.9249 H4            1 RES     
   13932 C5        -519.7367  -338.8039   484.8395 C5            1 RES     
   13933 C5        -519.7671  -340.1695   484.1532 C5            1 RES     
   13934 C5        -521.1427  -340.5164   483.5586 C5            1 RES     
   13935 C5        -521.5556  -339.5961   482.3952 C5            1 RES     
   13936 C5        -522.9153  -340.0188   481.8182 C5            1 RES     
   13937 C5        -523.2711  -339.1998   480.5580 C5            1 RES     
   13938 C5        -524.6060  -339.5983   479.8741 C5            1 RES     
   13939 C5        -524.6616  -341.1077   479.6322 C5            1 RES     
   13940 C5        -525.6996  -341.6410   478.6130 C5            1 RES     
   13941 C5        -527.2336  -341.5997   478.9787 C5            1 RES     
   13942 C5        -527.4598  -342.6962   480.0562 C5            1 RES     
   13943 C5        -528.7795  -343.1174   480.7135 C5            1 RES     
   13944 C5        -528.3844  -344.2833   481.6787 C5            1 RES     
   13945 C5        -529.4905  -344.9407   482.5023 C5            1 RES     
   13946 C5        -530.4394  -345.7867   481.6623 C5            1 RES     
   13947 C5        -525.2352  -341.4625   477.1602 C5            1 RES     
   13948 C0        -525.4652  -342.7572   476.2776 C0            1 RES     
   13949 C5        -525.5679  -342.3235   474.7518 C5            1 RES     
   13950 C5        -526.8364  -342.7690   473.9436 C5            1 RES     
   13951 C5        -526.7225  -344.1795   473.2965 C5            1 RES     
   13952 C5        -525.8544  -344.2493   472.0176 C5            1 RES     
   13953 C5        -525.5346  -345.6896   471.5716 C5            1 RES     
   13954 C5        -526.7239  -346.4847   471.0105 C5            1 RES     
   13955 C5        -527.3292  -345.9094   469.7154 C5            1 RES     
   13956 C5        -526.3202  -345.8176   468.5664 C5            1 RES     
   13957 C5        -527.3472  -341.6751   472.9273 C5            1 RES     
   13958 C5        -526.2810  -340.9831   472.0338 C5            1 RES     
   13959 C5        -526.8632  -340.1007   470.9067 C5            1 RES     
   13960 C5        -527.7120  -338.9048   471.3819 C5            1 RES     
   13961 C5        -528.2187  -338.0217   470.2151 C5            1 RES     
   13962 C5        -527.0907  -337.2748   469.4697 C5            1 RES     
   13963 C5        -527.5837  -336.4029   468.2990 C5            1 RES     
   13964 C5        -528.4800  -335.2406   468.7265 C5            1 RES     
   13965 H6        -519.9231  -337.9854   484.1156 H6            1 RES     
   13966 H6        -518.7355  -338.6397   485.2906 H6            1 RES     
   13967 H6        -520.4991  -338.7650   485.6463 H6            1 RES     
   13968 H6        -518.9882  -340.2075   483.3605 H6            1 RES     
   13969 H6        -519.5174  -340.9383   484.9168 H6            1 RES     
   13970 H6        -521.0847  -341.5593   483.1737 H6            1 RES     
   13971 H6        -521.9103  -340.4878   484.3618 H6            1 RES     
   13972 H6        -520.7792  -339.6715   481.6011 H6            1 RES     
   13973 H6        -521.6255  -338.5408   482.7294 H6            1 RES     
   13974 H6        -522.8309  -341.0926   481.5462 H6            1 RES     
   13975 H6        -523.7079  -339.9027   482.5880 H6            1 RES     
   13976 H6        -523.3025  -338.1161   480.8018 H6            1 RES     
   13977 H6        -522.4530  -339.3581   479.8196 H6            1 RES     
   13978 H6        -525.4820  -339.2993   480.4888 H6            1 RES     
   13979 H6        -524.6492  -339.0518   478.9073 H6            1 RES     
   13980 H6        -524.7991  -341.6049   480.6105 H6            1 RES     
   13981 H6        -523.6624  -341.4331   479.2628 H6            1 RES     
   13982 H6        -525.5246  -342.6543   478.6527 H6            1 RES     
   13983 H6        -527.5371  -340.5848   479.3112 H6            1 RES     
   13984 H6        -527.8413  -341.8846   478.0916 H6            1 RES     
   13985 H6        -527.1783  -343.6317   479.5372 H6            1 RES     
   13986 H6        -526.7823  -342.4413   480.8885 H6            1 RES     
   13987 H6        -529.5006  -343.4660   479.9429 H6            1 RES     
   13988 H6        -529.2199  -342.2754   481.2867 H6            1 RES     
   13989 H6        -527.8658  -345.0926   481.1121 H6            1 RES     
   13990 H6        -527.6543  -343.8786   482.4137 H6            1 RES     
   13991 H6        -530.0421  -344.1751   483.0846 H6            1 RES     
   13992 H6        -528.9942  -345.6333   483.2210 H6            1 RES     
   13993 H6        -529.8710  -346.5727   481.1169 H6            1 RES     
   13994 H6        -530.9934  -345.1584   480.9385 H6            1 RES     
   13995 H6        -531.1630  -346.2926   482.3367 H6            1 RES     
   13996 H6        -524.1421  -341.2724   477.0940 H6            1 RES     
   13997 H6        -525.7460  -340.5473   476.7907 H6            1 RES     
   13998 H6        -525.7010  -341.2255   474.7829 H6            1 RES     
   13999 H6        -524.6165  -342.4284   474.1935 H6            1 RES     
   14000 H6        -527.6584  -342.8536   474.6900 H6            1 RES     
   14001 H6        -526.3409  -344.8707   474.0767 H6            1 RES     
   14002 H6        -527.7397  -344.5299   473.0176 H6            1 RES     
   14003 H6        -526.3396  -343.7095   471.1823 H6            1 RES     
   14004 H6        -524.8904  -343.7400   472.2042 H6            1 RES     
   14005 H6        -524.7363  -345.6518   470.8028 H6            1 RES     
   14006 H6        -525.1138  -346.2566   472.4272 H6            1 RES     
   14007 H6        -527.5171  -346.5642   471.7831 H6            1 RES     
   14008 H6        -526.3659  -347.5147   470.7925 H6            1 RES     
   14009 H6        -527.7697  -344.9078   469.8988 H6            1 RES     
   14010 H6        -528.1513  -346.5858   469.3981 H6            1 RES     
   14011 H6        -525.8687  -346.8126   468.3649 H6            1 RES     
   14012 H6        -526.8343  -345.4675   467.6474 H6            1 RES     
   14013 H6        -525.5154  -345.0888   468.7950 H6            1 RES     
   14014 H6        -527.8175  -340.8579   473.5156 H6            1 RES     
   14015 H6        -528.1486  -342.1271   472.3032 H6            1 RES     
   14016 H6        -525.6454  -341.7177   471.5218 H6            1 RES     
   14017 H6        -525.6046  -340.3669   472.6637 H6            1 RES     
   14018 H6        -525.9926  -339.7220   470.3351 H6            1 RES     
   14019 H6        -527.4740  -340.7328   470.2248 H6            1 RES     
   14020 H6        -527.1263  -338.2738   472.0852 H6            1 RES     
   14021 H6        -528.6004  -339.2968   471.9174 H6            1 RES     
   14022 H6        -528.7968  -338.6455   469.4986 H6            1 RES     
   14023 H6        -528.9103  -337.2674   470.6501 H6            1 RES     
   14024 H6        -526.3888  -338.0117   469.0315 H6            1 RES     
   14025 H6        -526.5274  -336.6386   470.1867 H6            1 RES     
   14026 H6        -526.6906  -335.9702   467.7962 H6            1 RES     
   14027 H6        -528.1220  -337.0330   467.5587 H6            1 RES     
   14028 H6        -529.4237  -335.6060   469.1786 H6            1 RES     
   14029 H6        -528.7427  -334.6335   467.8336 H6            1 RES     
   14030 H6        -527.9476  -334.5883   469.4508 H6            1 RES     
   14031 C0        -525.4008  -342.5974   489.4066 C0            1 RES     
   14032 C0        -524.5490  -343.2580   490.5646 C0            1 RES     
   14033 C0        -523.3621  -343.7101   490.0952 C0            1 RES     
   14034 S1        -522.3755  -344.3927   491.2689 S1            1 RES     
   14035 C0        -523.4947  -344.1132   492.5165 C0            1 RES     
   14036 C0        -524.6529  -343.5637   491.9482 C0            1 RES     
   14037 C0        -523.3135  -343.5458   488.6899 C0            1 RES     
   14038 C0        -524.4206  -342.9647   488.2870 C0            1 RES     
   14039 C0        -524.5086  -342.9658   486.8537 C0            1 RES     
   14040 C0        -523.4174  -343.5895   486.2765 C0            1 RES     
   14041 S1        -522.1741  -344.1453   487.4555 S1            1 RES     
   14042 H2        -525.5011  -343.3644   492.5505 H2            1 RES     
   14043 H2        -525.3598  -342.6615   486.3215 H2            1 RES     
   14044 N3        -523.9420  -343.8790   496.2831 N3            1 RES     
   14045 C0        -524.1705  -343.7863   494.9430 C0            1 RES     
   14046 C0        -523.2591  -344.3144   493.9902 C0            1 RES     
   14047 C0        -522.1123  -344.9518   494.5109 C0            1 RES     
   14048 N3        -521.1354  -345.5207   493.7577 N3            1 RES     
   14049 S1        -520.0868  -346.0897   494.8990 S1            1 RES     
   14050 N3        -520.7810  -345.6560   496.3300 N3            1 RES     
   14051 C0        -521.9149  -345.0276   495.9209 C0            1 RES     
   14052 C0        -522.8399  -344.4811   496.7933 C0            1 RES     
   14053 H4        -525.0548  -343.2665   494.6374 H4            1 RES     
   14054 C5        -518.2472  -340.2807   497.3646 C5            1 RES     
   14055 C5        -518.6698  -341.4170   496.4337 C5            1 RES     
   14056 C5        -520.1601  -341.3664   496.0561 C5            1 RES     
   14057 C5        -520.5340  -340.1384   495.2057 C5            1 RES     
   14058 C5        -522.0226  -340.1672   494.8267 C5            1 RES     
   14059 C5        -522.3772  -339.0229   493.8517 C5            1 RES     
   14060 C5        -523.8525  -339.0074   493.3702 C5            1 RES     
   14061 C5        -524.2645  -340.3824   492.8414 C5            1 RES     
   14062 C5        -525.5314  -340.4681   491.9535 C5            1 RES     
   14063 C5        -526.9498  -340.2469   492.6074 C5            1 RES     
   14064 C5        -527.2435  -341.5109   493.4621 C5            1 RES     
   14065 C5        -528.5108  -341.8384   494.2606 C5            1 RES     
   14066 C5        -528.2359  -343.2509   494.8743 C5            1 RES     
   14067 C5        -529.3228  -343.8810   495.7433 C5            1 RES     
   14068 C5        -530.5440  -344.3236   494.9468 C5            1 RES     
   14069 C5        -525.2594  -340.0338   490.5060 C5            1 RES     
   14070 C0        -525.8885  -341.0209   489.4392 C0            1 RES     
   14071 C5        -526.1203  -340.2260   488.0822 C5            1 RES     
   14072 C5        -527.5598  -340.2375   487.4591 C5            1 RES     
   14073 C5        -527.8469  -341.4515   486.5288 C5            1 RES     
   14074 C5        -527.2124  -341.3664   485.1203 C5            1 RES     
   14075 C5        -527.2772  -342.6926   484.3375 C5            1 RES     
   14076 C5        -528.6785  -343.1108   483.8652 C5            1 RES     
   14077 C5        -529.3314  -342.1474   482.8551 C5            1 RES     
   14078 C5        -528.5071  -341.9634   481.5769 C5            1 RES     
   14079 C5        -527.9695  -338.8616   486.8040 C5            1 RES     
   14080 C5        -526.9240  -338.1748   485.8824 C5            1 RES     
   14081 C5        -527.4640  -336.9620   485.0916 C5            1 RES     
   14082 C5        -527.9580  -335.7836   485.9542 C5            1 RES     
   14083 C5        -528.4309  -334.5740   485.1109 C5            1 RES     
   14084 C5        -527.2921  -333.8808   484.3308 C5            1 RES     
   14085 C5        -527.7548  -332.6832   483.4789 C5            1 RES     
   14086 C5        -528.3087  -331.5174   484.2979 C5            1 RES     
   14087 H6        -518.3592  -339.2939   496.8720 H6            1 RES     
   14088 H6        -517.1786  -340.4062   497.6391 H6            1 RES     
   14089 H6        -518.8560  -340.3016   498.2935 H6            1 RES     
   14090 H6        -518.0428  -341.4014   495.5154 H6            1 RES     
   14091 H6        -518.4801  -342.3767   496.9624 H6            1 RES     
   14092 H6        -520.3838  -342.2815   495.4632 H6            1 RES     
   14093 H6        -520.7766  -341.3954   496.9804 H6            1 RES     
   14094 H6        -519.9177  -340.1577   494.2790 H6            1 RES     
   14095 H6        -520.3266  -339.1972   495.7548 H6            1 RES     
   14096 H6        -522.2107  -341.1432   494.3307 H6            1 RES     
   14097 H6        -522.6494  -340.1002   495.7415 H6            1 RES     
   14098 H6        -522.1400  -338.0399   494.3124 H6            1 RES     
   14099 H6        -521.7302  -339.1420   492.9536 H6            1 RES     
   14100 H6        -524.5438  -338.7144   494.1893 H6            1 RES     
   14101 H6        -523.9203  -338.2481   492.5615 H6            1 RES     
   14102 H6        -524.3591  -341.0658   493.7058 H6            1 RES     
   14103 H6        -523.4237  -340.7805   492.2287 H6            1 RES     
   14104 H6        -525.5730  -341.4763   491.7518 H6            1 RES     
   14105 H6        -526.9769  -339.3030   493.1914 H6            1 RES     
   14106 H6        -527.7286  -340.2020   491.8143 H6            1 RES     
   14107 H6        -527.2482  -342.3308   492.7194 H6            1 RES     
   14108 H6        -526.4118  -341.5837   494.1830 H6            1 RES     
   14109 H6        -529.3955  -341.8622   493.5882 H6            1 RES     
   14110 H6        -528.6715  -341.0930   495.0668 H6            1 RES     
   14111 H6        -527.9917  -343.9803   494.0660 H6            1 RES     
   14112 H6        -527.3358  -343.1666   495.5222 H6            1 RES     
   14113 H6        -529.6059  -343.1912   496.5641 H6            1 RES     
   14114 H6        -528.8854  -344.8003   496.1972 H6            1 RES     
   14115 H6        -530.2436  -345.0445   494.1541 H6            1 RES     
   14116 H6        -531.0516  -343.4543   494.4860 H6            1 RES     
   14117 H6        -531.2513  -344.8404   495.6302 H6            1 RES     
   14118 H6        -524.1729  -340.0278   490.2713 H6            1 RES     
   14119 H6        -525.6116  -338.9821   490.4355 H6            1 RES     
   14120 H6        -526.0096  -339.1610   488.3612 H6            1 RES     
   14121 H6        -525.3064  -340.3603   487.3424 H6            1 RES     
   14122 H6        -528.2615  -340.3518   488.3162 H6            1 RES     
   14123 H6        -527.5108  -342.3640   487.0640 H6            1 RES     
   14124 H6        -528.9453  -341.5419   486.3849 H6            1 RES     
   14125 H6        -527.6889  -340.5672   484.5213 H6            1 RES     
   14126 H6        -526.1450  -341.0929   485.2181 H6            1 RES     
   14127 H6        -526.6118  -342.6136   483.4539 H6            1 RES     
   14128 H6        -526.8656  -343.5112   484.9628 H6            1 RES     
   14129 H6        -529.3473  -343.2313   484.7430 H6            1 RES     
   14130 H6        -528.5851  -344.1058   483.3775 H6            1 RES     
   14131 H6        -529.5156  -341.1569   483.3196 H6            1 RES     
   14132 H6        -530.3167  -342.5744   482.5705 H6            1 RES     
   14133 H6        -528.3135  -342.9453   481.0944 H6            1 RES     
   14134 H6        -529.0644  -341.3205   480.8645 H6            1 RES     
   14135 H6        -527.5404  -341.4623   481.7904 H6            1 RES     
   14136 H6        -528.1621  -338.1381   487.6254 H6            1 RES     
   14137 H6        -528.9321  -339.0048   486.2666 H6            1 RES     
   14138 H6        -526.5428  -338.8664   485.1194 H6            1 RES     
   14139 H6        -526.0461  -337.8541   486.4828 H6            1 RES     
   14140 H6        -526.6269  -336.6169   484.4529 H6            1 RES     
   14141 H6        -528.2897  -337.2971   484.4255 H6            1 RES     
   14142 H6        -527.1537  -335.4503   486.6454 H6            1 RES     
   14143 H6        -528.8206  -336.1298   486.5590 H6            1 RES     
   14144 H6        -529.2283  -334.8986   484.4069 H6            1 RES     
   14145 H6        -528.8733  -333.8354   485.8148 H6            1 RES     
   14146 H6        -526.8365  -334.6036   483.6254 H6            1 RES     
   14147 H6        -526.5063  -333.5419   485.0406 H6            1 RES     
   14148 H6        -526.8741  -332.3068   482.9129 H6            1 RES     
   14149 H6        -528.5186  -333.0152   482.7432 H6            1 RES     
   14150 H6        -529.2314  -331.8086   484.8386 H6            1 RES     
   14151 H6        -528.5646  -330.6792   483.6146 H6            1 RES     
   14152 H6        -527.5483  -331.1594   485.0238 H6            1 RES     
   14153 C0        -523.8530  -343.9983   502.0642 C0            1 RES     
   14154 C0        -523.0006  -345.0537   502.8781 C0            1 RES     
   14155 C0        -522.0203  -345.5820   502.1076 C0            1 RES     
   14156 S1        -521.0401  -346.6857   502.9062 S1            1 RES     
   14157 C0        -521.8768  -346.5191   504.3757 C0            1 RES     
   14158 C0        -522.9618  -345.6562   504.1642 C0            1 RES     
   14159 C0        -522.1459  -345.0997   500.7826 C0            1 RES     
   14160 C0        -523.1503  -344.2549   500.7265 C0            1 RES     
   14161 C0        -523.4472  -343.9001   499.3671 C0            1 RES     
   14162 C0        -522.6120  -344.5499   498.4766 C0            1 RES     
   14163 S1        -521.3560  -345.5787   499.2569 S1            1 RES     
   14164 H2        -523.6494  -345.4604   504.9458 H2            1 RES     
   14165 H2        -524.2827  -343.3338   499.0813 H2            1 RES     
   14166 N3        -521.7025  -347.1117   508.1255 N3            1 RES     
   14167 C0        -522.1012  -346.6648   506.9015 C0            1 RES     
   14168 C0        -521.4747  -347.1026   505.7044 C0            1 RES     
   14169 C0        -520.4266  -348.0362   505.8545 C0            1 RES     
   14170 N3        -519.7161  -348.5719   504.8281 N3            1 RES     
   14171 S1        -518.6565  -349.5702   505.6069 S1            1 RES     
   14172 N3        -519.0228  -349.3742   507.2022 N3            1 RES     
   14173 C0        -520.0439  -348.4781   507.1550 C0            1 RES     
   14174 C0        -520.6915  -348.0012   508.2813 C0            1 RES     
   14175 H4        -522.8892  -345.9407   506.8836 H4            1 RES     
   14176 C5        -515.2745  -344.9278   508.8034 C5            1 RES     
   14177 C5        -516.0629  -345.7184   507.7594 C5            1 RES     
   14178 C5        -517.5469  -345.3193   507.6932 C5            1 RES     
   14179 C5        -517.7712  -343.8786   507.1985 C5            1 RES     
   14180 C5        -519.2708  -343.5553   507.1143 C5            1 RES     
   14181 C5        -519.5128  -342.1683   506.4793 C5            1 RES     
   14182 C5        -521.0052  -341.7808   506.3032 C5            1 RES     
   14183 C5        -521.7750  -342.8968   505.5947 C5            1 RES     
   14184 C5        -523.1479  -342.5459   504.9679 C5            1 RES     
   14185 C5        -524.3737  -342.2415   505.9129 C5            1 RES     
   14186 C5        -524.8012  -343.6009   506.5326 C5            1 RES     
   14187 C5        -525.9770  -343.8816   507.4758 C5            1 RES     
   14188 C5        -525.9228  -345.4250   507.7246 C5            1 RES     
   14189 C5        -526.9787  -346.0432   508.6394 C5            1 RES     
   14190 C5        -528.3701  -346.0630   508.0189 C5            1 RES     
   14191 C5        -523.0062  -341.8348   503.6144 C5            1 RES     
   14192 C0        -523.9822  -342.4143   502.5100 C0            1 RES     
   14193 C5        -524.2366  -341.2919   501.4135 C5            1 RES     
   14194 C5        -525.7212  -340.9028   501.0891 C5            1 RES     
   14195 C5        -526.3952  -341.7914   500.0039 C5            1 RES     
   14196 C5        -525.9724  -341.4866   498.5472 C5            1 RES     
   14197 C5        -526.4340  -342.5565   497.5382 C5            1 RES     
   14198 C5        -527.9463  -342.5984   497.2685 C5            1 RES     
   14199 C5        -528.5201  -341.3237   496.6201 C5            1 RES     
   14200 C5        -527.8735  -340.9886   495.2722 C5            1 RES     
   14201 C5        -525.9195  -339.3607   500.8188 C5            1 RES     
   14202 C5        -524.8992  -338.6687   499.8732 C5            1 RES     
   14203 C5        -525.2784  -337.2275   499.4644 C5            1 RES     
   14204 C5        -525.3762  -336.2200   500.6271 C5            1 RES     
   14205 C5        -525.6989  -334.7811   500.1545 C5            1 RES     
   14206 C5        -524.5663  -334.1329   499.3281 C5            1 RES     
   14207 C5        -524.8830  -332.7053   498.8428 C5            1 RES     
   14208 C5        -525.0478  -331.6889   499.9726 C5            1 RES     
   14209 H6        -515.2445  -343.8484   508.5528 H6            1 RES     
   14210 H6        -514.2289  -345.3000   508.8363 H6            1 RES     
   14211 H6        -515.7296  -345.0618   509.8078 H6            1 RES     
   14212 H6        -515.5897  -345.5951   506.7607 H6            1 RES     
   14213 H6        -516.0067  -346.7941   508.0353 H6            1 RES     
   14214 H6        -518.0461  -346.0137   506.9807 H6            1 RES     
   14215 H6        -518.0120  -345.4587   508.6930 H6            1 RES     
   14216 H6        -517.3170  -343.7848   506.1865 H6            1 RES     
   14217 H6        -517.2887  -343.1460   507.8774 H6            1 RES     
   14218 H6        -519.7343  -344.3372   506.4757 H6            1 RES     
   14219 H6        -519.7267  -343.5989   508.1265 H6            1 RES     
   14220 H6        -519.0056  -341.3801   507.0761 H6            1 RES     
   14221 H6        -519.0460  -342.1821   505.4686 H6            1 RES     
   14222 H6        -521.4891  -341.5744   507.2818 H6            1 RES     
   14223 H6        -521.0278  -340.8514   505.6943 H6            1 RES     
   14224 H6        -521.8847  -343.7386   506.3037 H6            1 RES     
   14225 H6        -521.1386  -343.2789   504.7641 H6            1 RES     
   14226 H6        -523.4333  -343.4540   504.5770 H6            1 RES     
   14227 H6        -524.1119  -341.4737   506.6709 H6            1 RES     
   14228 H6        -525.2333  -341.8739   505.3101 H6            1 RES     
   14229 H6        -525.0906  -344.2070   505.6535 H6            1 RES     
   14230 H6        -523.9071  -343.9873   507.0503 H6            1 RES     
   14231 H6        -526.9357  -343.5896   506.9951 H6            1 RES     
   14232 H6        -525.8538  -343.3327   508.4323 H6            1 RES     
   14233 H6        -525.9622  -345.9728   506.7533 H6            1 RES     
   14234 H6        -524.9399  -345.6560   508.1911 H6            1 RES     
   14235 H6        -526.9834  -345.5295   509.6221 H6            1 RES     
   14236 H6        -526.6857  -347.1060   508.8041 H6            1 RES     
   14237 H6        -528.3512  -346.6161   507.0535 H6            1 RES     
   14238 H6        -528.7426  -345.0341   507.8508 H6            1 RES     
   14239 H6        -529.0627  -346.5953   508.7055 H6            1 RES     
   14240 H6        -521.9904  -341.9635   503.1818 H6            1 RES     
   14241 H6        -523.1320  -340.7514   503.8283 H6            1 RES     
   14242 H6        -523.8609  -340.3600   501.8768 H6            1 RES     
   14243 H6        -523.5887  -341.3869   500.5196 H6            1 RES     
   14244 H6        -526.2966  -341.0927   502.0233 H6            1 RES     
   14245 H6        -526.1866  -342.8493   500.2675 H6            1 RES     
   14246 H6        -527.4965  -341.6513   500.0582 H6            1 RES     
   14247 H6        -526.3502  -340.4973   498.2262 H6            1 RES     
   14248 H6        -524.8688  -341.4355   498.4920 H6            1 RES     
   14249 H6        -525.9051  -342.3876   496.5782 H6            1 RES     
   14250 H6        -526.1192  -343.5593   497.8929 H6            1 RES     
   14251 H6        -528.4883  -342.8050   498.2151 H6            1 RES     
   14252 H6        -528.1407  -343.4497   496.5799 H6            1 RES     
   14253 H6        -528.4177  -340.4554   497.3030 H6            1 RES     
   14254 H6        -529.6049  -341.4915   496.4490 H6            1 RES     
   14255 H6        -527.9677  -341.8461   494.5720 H6            1 RES     
   14256 H6        -528.3796  -340.1076   494.8261 H6            1 RES     
   14257 H6        -526.8015  -340.7298   495.3937 H6            1 RES     
   14258 H6        -525.8296  -338.8309   501.7916 H6            1 RES     
   14259 H6        -526.9591  -339.2014   500.4584 H6            1 RES     
   14260 H6        -524.7917  -339.2150   498.9267 H6            1 RES     
   14261 H6        -523.8943  -338.6587   500.3463 H6            1 RES     
   14262 H6        -524.4906  -336.8926   498.7608 H6            1 RES     
   14263 H6        -526.2457  -337.2448   498.9151 H6            1 RES     
   14264 H6        -524.4262  -336.2066   501.2043 H6            1 RES     
   14265 H6        -526.1938  -336.5434   501.3029 H6            1 RES     
   14266 H6        -526.6423  -334.7844   499.5655 H6            1 RES     
   14267 H6        -525.8644  -334.1652   501.0655 H6            1 RES     
   14268 H6        -524.3850  -334.7358   498.4163 H6            1 RES     
   14269 H6        -523.6302  -334.1153   499.9278 H6            1 RES     
   14270 H6        -524.0357  -332.3654   498.2069 H6            1 RES     
   14271 H6        -525.8002  -332.7140   498.2154 H6            1 RES     
   14272 H6        -525.9211  -331.9341   500.6095 H6            1 RES     
   14273 H6        -525.2167  -330.6809   499.5362 H6            1 RES     
   14274 H6        -524.1297  -331.6525   500.5965 H6            1 RES     
   14275 C0        -520.7881  -348.6146   513.6345 C0            1 RES     
   14276 C0        -520.0703  -349.9656   514.0375 C0            1 RES     
   14277 C0        -519.3504  -350.4590   513.0021 C0            1 RES     
   14278 S1        -518.5217  -351.8750   513.3561 S1            1 RES     
   14279 C0        -519.0771  -351.9182   514.9614 C0            1 RES     
   14280 C0        -519.9717  -350.8536   515.1421 C0            1 RES     
   14281 C0        -519.5643  -349.6614   511.8522 C0            1 RES     
   14282 C0        -520.3619  -348.6651   512.1631 C0            1 RES     
   14283 C0        -520.7737  -347.9511   510.9871 C0            1 RES     
   14284 C0        -520.2375  -348.5067   509.8396 C0            1 RES     
   14285 S1        -519.1293  -349.8950   510.1383 S1            1 RES     
   14286 H2        -520.4783  -350.7318   516.0643 H2            1 RES     
   14287 H2        -521.5017  -347.1959   510.9883 H2            1 RES     
   14288 N3        -518.4815  -353.4058   518.4074 N3            1 RES     
   14289 C0        -518.9519  -352.6182   517.3998 C0            1 RES     
   14290 C0        -518.6172  -352.8619   516.0411 C0            1 RES     
   14291 C0        -517.7824  -353.9730   515.7941 C0            1 RES     
   14292 N3        -517.3624  -354.3655   514.5633 N3            1 RES     
   14293 S1        -516.4375  -355.6899   514.9045 S1            1 RES     
   14294 N3        -516.5137  -355.8174   516.5463 N3            1 RES     
   14295 C0        -517.3153  -354.7712   516.8793 C0            1 RES     
   14296 C0        -517.6723  -354.4697   518.1819 C0            1 RES     
   14297 H4        -519.5607  -351.7842   517.6812 H4            1 RES     
   14298 C5        -511.7074  -352.6058   518.2693 C5            1 RES     
   14299 C5        -512.7919  -352.9751   517.2574 C5            1 RES     
   14300 C5        -514.1494  -352.3182   517.5598 C5            1 RES     
   14301 C5        -514.1312  -350.7848   517.4211 C5            1 RES     
   14302 C5        -515.5227  -350.1934   517.6939 C5            1 RES     
   14303 C5        -515.5537  -348.6749   517.4129 C5            1 RES     
   14304 C5        -516.9381  -348.0016   517.6090 C5            1 RES     
   14305 C5        -518.0246  -348.7648   516.8494 C5            1 RES     
   14306 C5        -519.3679  -348.0402   516.5825 C5            1 RES     
   14307 C5        -520.3471  -347.7591   517.7870 C5            1 RES     
   14308 C5        -520.9589  -349.1303   518.1872 C5            1 RES     
   14309 C5        -522.0150  -349.4167   519.2613 C5            1 RES     
   14310 C5        -522.2557  -350.9600   519.1757 C5            1 RES     
   14311 C5        -523.2723  -351.5830   520.1307 C5            1 RES     
   14312 C5        -524.7119  -351.2109   519.7979 C5            1 RES     
   14313 C5        -519.2791  -347.0640   515.4005 C5            1 RES     
   14314 C0        -520.5085  -347.1844   514.4096 C0            1 RES     
   14315 C5        -520.6763  -345.8070   513.6341 C5            1 RES     
   14316 C5        -522.0747  -345.0982   513.6867 C5            1 RES     
   14317 C5        -523.0757  -345.5715   512.5934 C5            1 RES     
   14318 C5        -522.8175  -345.0082   511.1757 C5            1 RES     
   14319 C5        -523.6409  -345.7099   510.0778 C5            1 RES     
   14320 C5        -525.1501  -345.4211   510.1005 C5            1 RES     
   14321 C5        -525.5275  -343.9486   509.8475 C5            1 RES     
   14322 C5        -525.0307  -343.4215   508.4977 C5            1 RES     
   14323 C5        -521.9766  -343.5259   513.7791 C5            1 RES     
   14324 C5        -520.9832  -342.8187   512.8163 C5            1 RES     
   14325 C5        -521.1017  -341.2782   512.7900 C5            1 RES     
   14326 C5        -520.8091  -340.5747   514.1301 C5            1 RES     
   14327 C5        -520.8831  -339.0311   514.0311 C5            1 RES     
   14328 C5        -519.7729  -338.4137   513.1523 C5            1 RES     
   14329 C5        -519.8453  -336.8790   513.0377 C5            1 RES     
   14330 C5        -519.6204  -336.1474   514.3609 C5            1 RES     
   14331 H6        -511.4848  -351.5201   518.2426 H6            1 RES     
   14332 H6        -510.7723  -353.1524   518.0245 H6            1 RES     
   14333 H6        -512.0271  -352.8928   519.2937 H6            1 RES     
   14334 H6        -512.4561  -352.7029   516.2328 H6            1 RES     
   14335 H6        -512.9268  -354.0783   517.2925 H6            1 RES     
   14336 H6        -514.8851  -352.7250   516.8302 H6            1 RES     
   14337 H6        -514.4806  -352.6074   518.5805 H6            1 RES     
   14338 H6        -513.8221  -350.5344   516.3815 H6            1 RES     
   14339 H6        -513.4085  -350.3307   518.1294 H6            1 RES     
   14340 H6        -516.2317  -350.7075   517.0105 H6            1 RES     
   14341 H6        -515.8228  -350.3957   518.7442 H6            1 RES     
   14342 H6        -514.8074  -348.1524   518.0489 H6            1 RES     
   14343 H6        -515.2552  -348.5298   516.3502 H6            1 RES     
   14344 H6        -517.2168  -347.9520   518.6835 H6            1 RES     
   14345 H6        -516.8513  -346.9649   517.2180 H6            1 RES     
   14346 H6        -518.2057  -349.7182   517.3798 H6            1 RES     
   14347 H6        -517.6144  -349.0439   515.8521 H6            1 RES     
   14348 H6        -519.8954  -348.7650   516.0772 H6            1 RES     
   14349 H6        -519.8183  -347.2515   518.6208 H6            1 RES     
   14350 H6        -521.1877  -347.1142   517.4480 H6            1 RES     
   14351 H6        -521.4977  -349.4499   517.2755 H6            1 RES     
   14352 H6        -520.1016  -349.7791   518.4341 H6            1 RES     
   14353 H6        -522.9494  -348.8557   519.0432 H6            1 RES     
   14354 H6        -521.6374  -349.1411   520.2677 H6            1 RES     
   14355 H6        -522.5543  -351.2457   518.1392 H6            1 RES     
   14356 H6        -521.2870  -351.4637   519.3879 H6            1 RES     
   14357 H6        -523.0220  -351.3249   521.1796 H6            1 RES     
   14358 H6        -523.1922  -352.6889   520.0163 H6            1 RES     
   14359 H6        -524.9544  -351.5134   518.7549 H6            1 RES     
   14360 H6        -524.8766  -350.1227   519.9175 H6            1 RES     
   14361 H6        -525.3930  -351.7614   520.4817 H6            1 RES     
   14362 H6        -518.3896  -347.2621   514.7641 H6            1 RES     
   14363 H6        -519.1374  -346.0577   515.8506 H6            1 RES     
   14364 H6        -520.0459  -345.0924   514.1965 H6            1 RES     
   14365 H6        -520.2030  -345.7989   512.6323 H6            1 RES     
   14366 H6        -522.5329  -345.4008   514.6554 H6            1 RES     
   14367 H6        -523.0615  -346.6814   512.5911 H6            1 RES     
   14368 H6        -524.1013  -345.2576   512.8853 H6            1 RES     
   14369 H6        -523.0184  -343.9206   511.1414 H6            1 RES     
   14370 H6        -521.7490  -345.1395   510.9213 H6            1 RES     
   14371 H6        -523.2359  -345.4131   509.0890 H6            1 RES     
   14372 H6        -523.4988  -346.8074   510.1539 H6            1 RES     
   14373 H6        -525.5778  -345.7484   511.0713 H6            1 RES     
   14374 H6        -525.6215  -346.0368   509.3035 H6            1 RES     
   14375 H6        -525.1423  -343.2991   510.6603 H6            1 RES     
   14376 H6        -526.6362  -343.8784   509.8573 H6            1 RES     
   14377 H6        -525.4082  -344.0579   507.6689 H6            1 RES     
   14378 H6        -525.3970  -342.3851   508.3457 H6            1 RES     
   14379 H6        -523.9221  -343.3908   508.4612 H6            1 RES     
   14380 H6        -521.6329  -343.2665   514.8037 H6            1 RES     
   14381 H6        -522.9997  -343.1060   513.6650 H6            1 RES     
   14382 H6        -521.1358  -343.1347   511.7758 H6            1 RES     
   14383 H6        -519.9406  -343.0975   513.0798 H6            1 RES     
   14384 H6        -520.3733  -340.9290   512.0314 H6            1 RES     
   14385 H6        -522.1206  -340.9949   512.4447 H6            1 RES     
   14386 H6        -519.8036  -340.8653   514.5047 H6            1 RES     
   14387 H6        -521.5679  -340.9010   514.8699 H6            1 RES     
   14388 H6        -521.8817  -338.7291   513.6461 H6            1 RES     
   14389 H6        -520.7766  -338.6300   515.0628 H6            1 RES     
   14390 H6        -519.8612  -338.8049   512.1195 H6            1 RES     
   14391 H6        -518.7765  -338.7033   513.5520 H6            1 RES     
   14392 H6        -519.0483  -336.5515   512.3338 H6            1 RES     
   14393 H6        -520.8255  -336.5776   512.6096 H6            1 RES     
   14394 H6        -520.4220  -336.3800   515.0901 H6            1 RES     
   14395 H6        -519.6325  -335.0511   514.1796 H6            1 RES     
   14396 H6        -518.6339  -336.4216   514.7912 H6            1 RES     
   14397 C0        -517.1060  -356.3105   523.2151 C0            1 RES     
   14398 C0        -516.6420  -357.8228   523.1893 C0            1 RES     
   14399 C0        -516.2052  -358.1743   521.9568 C0            1 RES     
   14400 S1        -515.6553  -359.7564   521.8494 S1            1 RES     
   14401 C0        -515.9638  -360.0819   523.4884 C0            1 RES     
   14402 C0        -516.5734  -358.9509   524.0502 C0            1 RES     
   14403 C0        -516.4111  -357.1017   521.0561 C0            1 RES     
   14404 C0        -516.9226  -356.0838   521.7104 C0            1 RES     
   14405 C0        -517.3413  -355.0502   520.8057 C0            1 RES     
   14406 C0        -517.1118  -355.4024   519.4881 C0            1 RES     
   14407 S1        -516.2942  -356.9939   519.2796 S1            1 RES     
   14408 H2        -516.9004  -358.9648   525.0576 H2            1 RES     
   14409 H2        -517.8828  -354.2015   521.1003 H2            1 RES     
   14410 N3        -515.1975  -362.4261   526.3797 N3            1 RES     
   14411 C0        -515.6322  -361.3518   525.6629 C0            1 RES     
   14412 C0        -515.5618  -361.3205   524.2447 C0            1 RES     
   14413 C0        -515.0296  -362.4696   523.6212 C0            1 RES     
   14414 N3        -514.8897  -362.6258   522.2790 N3            1 RES     
   14415 S1        -514.2291  -364.1343   522.1596 S1            1 RES     
   14416 N3        -514.0876  -364.6327   523.7245 N3            1 RES     
   14417 C0        -514.5888  -363.5719   524.4109 C0            1 RES     
   14418 C0        -514.6768  -363.5307   525.7915 C0            1 RES     
   14419 H4        -516.0004  -360.5151   526.2197 H4            1 RES     
   14420 C5        -508.5054  -362.8151   525.1102 C5            1 RES     
   14421 C5        -509.7810  -362.7376   524.2715 C5            1 RES     
   14422 C5        -510.9070  -361.9441   524.9561 C5            1 RES     
   14423 C5        -510.5822  -360.4493   525.1315 C5            1 RES     
   14424 C5        -511.7592  -359.7054   525.7808 C5            1 RES     
   14425 C5        -511.5062  -358.1823   525.8260 C5            1 RES     
   14426 C5        -512.6702  -357.3431   526.4170 C5            1 RES     
   14427 C5        -513.9946  -357.7016   525.7409 C5            1 RES     
   14428 C5        -515.1764  -356.7107   525.8899 C5            1 RES     
   14429 C5        -515.8840  -356.5568   527.2913 C5            1 RES     
   14430 C5        -516.7087  -357.8549   527.5139 C5            1 RES     
   14431 C5        -517.6311  -358.1987   528.6895 C5            1 RES     
   14432 C5        -518.2060  -359.6108   528.3394 C5            1 RES     
   14433 C5        -519.1798  -360.2549   529.3245 C5            1 RES     
   14434 C5        -520.5396  -359.5683   529.3570 C5            1 RES     
   14435 C5        -515.0566  -355.5127   524.9367 C5            1 RES     
   14436 C0        -516.4159  -355.1771   524.1967 C0            1 RES     
   14437 C5        -516.3982  -353.6475   523.7648 C5            1 RES     
   14438 C5        -517.5893  -352.7379   524.2279 C5            1 RES     
   14439 C5        -518.8186  -352.7550   523.2740 C5            1 RES     
   14440 C5        -518.6582  -351.9253   521.9779 C5            1 RES     
   14441 C5        -519.7654  -352.1908   520.9391 C5            1 RES     
   14442 C5        -521.1578  -351.6560   521.3092 C5            1 RES     
   14443 C5        -521.2449  -350.1229   521.4385 C5            1 RES     
   14444 C5        -520.8519  -349.3856   520.1544 C5            1 RES     
   14445 C5        -517.1449  -351.2747   524.6178 C5            1 RES     
   14446 C5        -516.1766  -350.5443   523.6467 C5            1 RES     
   14447 C5        -515.9658  -349.0454   523.9577 C5            1 RES     
   14448 C5        -515.3349  -348.7427   525.3314 C5            1 RES     
   14449 C5        -515.0911  -347.2314   525.5647 C5            1 RES     
   14450 C5        -514.0169  -346.6272   524.6336 C5            1 RES     
   14451 C5        -513.7758  -345.1209   524.8498 C5            1 RES     
   14452 C5        -513.2068  -344.7756   526.2260 C5            1 RES     
   14453 H6        -508.0624  -361.8104   525.2628 H6            1 RES     
   14454 H6        -507.7554  -363.4429   524.5844 H6            1 RES     
   14455 H6        -508.7242  -363.2766   526.0965 H6            1 RES     
   14456 H6        -509.5500  -362.2930   523.2788 H6            1 RES     
   14457 H6        -510.1418  -363.7765   524.1066 H6            1 RES     
   14458 H6        -511.8121  -362.0307   524.3139 H6            1 RES     
   14459 H6        -511.1378  -362.4050   525.9407 H6            1 RES     
   14460 H6        -510.3837  -360.0172   524.1250 H6            1 RES     
   14461 H6        -509.6826  -360.3102   525.7653 H6            1 RES     
   14462 H6        -512.6547  -359.9101   525.1561 H6            1 RES     
   14463 H6        -511.9370  -360.0956   526.8056 H6            1 RES     
   14464 H6        -510.5799  -357.9648   526.3998 H6            1 RES     
   14465 H6        -511.3439  -357.8435   524.7780 H6            1 RES     
   14466 H6        -512.7700  -357.5022   527.5122 H6            1 RES     
   14467 H6        -512.4225  -356.2749   526.2359 H6            1 RES     
   14468 H6        -514.2950  -358.7069   526.0908 H6            1 RES     
   14469 H6        -513.8055  -357.8033   524.6479 H6            1 RES     
   14470 H6        -515.9153  -357.1908   525.3584 H6            1 RES     
   14471 H6        -515.1417  -356.3624   528.0937 H6            1 RES     
   14472 H6        -516.6080  -355.7129   527.2584 H6            1 RES     
   14473 H6        -517.4320  -357.8493   526.6769 H6            1 RES     
   14474 H6        -515.9830  -358.6835   527.4544 H6            1 RES     
   14475 H6        -518.4457  -357.4472   528.7736 H6            1 RES     
   14476 H6        -517.0590  -358.2406   529.6394 H6            1 RES     
   14477 H6        -518.7085  -359.5853   527.3434 H6            1 RES     
   14478 H6        -517.3469  -360.3121   528.2547 H6            1 RES     
   14479 H6        -518.7279  -360.3013   530.3361 H6            1 RES     
   14480 H6        -519.3557  -361.2984   528.9743 H6            1 RES     
   14481 H6        -520.9925  -359.5670   528.3406 H6            1 RES     
   14482 H6        -520.4484  -358.5281   529.7249 H6            1 RES     
   14483 H6        -521.2140  -360.1374   530.0322 H6            1 RES     
   14484 H6        -514.3339  -355.7066   524.1147 H6            1 RES     
   14485 H6        -514.6383  -354.6830   525.5465 H6            1 RES     
   14486 H6        -515.5536  -353.2087   524.3292 H6            1 RES     
   14487 H6        -516.0873  -353.4846   522.7137 H6            1 RES     
   14488 H6        -517.9534  -353.1769   525.1843 H6            1 RES     
   14489 H6        -519.0423  -353.8175   523.0431 H6            1 RES     
   14490 H6        -519.6987  -352.3450   523.8149 H6            1 RES     
   14491 H6        -518.6248  -350.8428   522.2049 H6            1 RES     
   14492 H6        -517.6920  -352.1774   521.5020 H6            1 RES     
   14493 H6        -519.4570  -351.7433   519.9724 H6            1 RES     
   14494 H6        -519.8515  -353.2824   520.7614 H6            1 RES     
   14495 H6        -521.4974  -352.1244   522.2567 H6            1 RES     
   14496 H6        -521.8623  -351.9723   520.5091 H6            1 RES     
   14497 H6        -520.6141  -349.7628   522.2770 H6            1 RES     
   14498 H6        -522.2991  -349.8640   521.6749 H6            1 RES     
   14499 H6        -521.4749  -349.7307   519.3017 H6            1 RES     
   14500 H6        -521.0066  -348.2951   520.2898 H6            1 RES     
   14501 H6        -519.7802  -349.5417   519.9129 H6            1 RES     
   14502 H6        -516.6062  -351.3305   525.5883 H6            1 RES     
   14503 H6        -518.0600  -350.6672   524.7900 H6            1 RES     
   14504 H6        -516.5452  -350.5723   522.6127 H6            1 RES     
   14505 H6        -515.1906  -351.0558   523.6429 H6            1 RES     
   14506 H6        -515.2998  -348.6591   523.1607 H6            1 RES     
   14507 H6        -516.9402  -348.5142   523.8794 H6            1 RES     
   14508 H6        -514.3707  -349.2855   525.4389 H6            1 RES     
   14509 H6        -516.0282  -349.0975   526.1209 H6            1 RES     
   14510 H6        -516.0478  -346.6766   525.4481 H6            1 RES     
   14511 H6        -514.7503  -347.1120   526.6165 H6            1 RES     
   14512 H6        -514.3384  -346.7402   523.5793 H6            1 RES     
   14513 H6        -513.0576  -347.1733   524.7672 H6            1 RES     
   14514 H6        -513.0402  -344.7804   524.0878 H6            1 RES     
   14515 H6        -514.7212  -344.5597   524.6883 H6            1 RES     
   14516 H6        -513.9230  -345.0307   527.0326 H6            1 RES     
   14517 H6        -513.0110  -343.6829   526.2773 H6            1 RES     
   14518 H6        -512.2492  -345.3126   526.3940 H6            1 RES     
   14519 C0        -513.7799  -366.5843   530.1404 C0            1 RES     
   14520 C0        -513.6588  -368.1044   529.7188 C0            1 RES     
   14521 C0        -513.4942  -368.2239   528.3801 C0            1 RES     
   14522 S1        -513.3171  -369.8063   527.8495 S1            1 RES     
   14523 C0        -513.4424  -370.4526   529.4160 C0            1 RES     
   14524 C0        -513.7065  -369.3988   530.3026 C0            1 RES     
   14525 C0        -513.5968  -366.9491   527.7732 C0            1 RES     
   14526 C0        -513.7766  -366.0424   528.7067 C0            1 RES     
   14527 C0        -514.0937  -364.7666   528.1288 C0            1 RES     
   14528 C0        -514.1419  -364.8303   526.7481 C0            1 RES     
   14529 S1        -513.7232  -366.4445   526.0672 S1            1 RES     
   14530 H2        -513.8765  -369.5941   531.3296 H2            1 RES     
   14531 H2        -514.3916  -363.9308   528.6883 H2            1 RES     
   14532 N3        -512.7764  -373.5134   531.5678 N3            1 RES     
   14533 C0        -513.0725  -372.2406   531.1816 C0            1 RES     
   14534 C0        -513.2073  -371.8861   529.8129 C0            1 RES     
   14535 C0        -513.0310  -372.9292   528.8783 C0            1 RES     
   14536 N3        -513.1274  -372.7841   527.5310 N3            1 RES     
   14537 S1        -512.8296  -374.3126   526.9826 S1            1 RES     
   14538 N3        -512.5683  -375.1855   528.3564 N3            1 RES     
   14539 C0        -512.7242  -374.2471   529.3275 C0            1 RES     
   14540 C0        -512.5965  -374.5204   530.6782 C0            1 RES     
   14541 H4        -513.1670  -371.5090   531.9571 H4            1 RES     
   14542 C5        -506.5846  -374.7554   528.9856 C5            1 RES     
   14543 C5        -507.9238  -374.2588   528.4409 C5            1 RES     
   14544 C5        -508.7404  -373.4661   529.4757 C5            1 RES     
   14545 C5        -508.0814  -372.1364   529.8861 C5            1 RES     
   14546 C5        -508.9632  -371.3737   530.8867 C5            1 RES     
   14547 C5        -508.3867  -369.9736   531.1915 C5            1 RES     
   14548 C5        -509.2441  -369.1083   532.1532 C5            1 RES     
   14549 C5        -510.6995  -369.0583   531.6852 C5            1 RES     
   14550 C5        -511.6070  -367.9399   532.2567 C5            1 RES     
   14551 C5        -512.0504  -368.0020   533.7693 C5            1 RES     
   14552 C5        -513.0913  -369.1507   533.8770 C5            1 RES     
   14553 C5        -513.8819  -369.5969   535.1127 C5            1 RES     
   14554 C5        -514.7905  -370.7623   534.5994 C5            1 RES     
   14555 C5        -515.7231  -371.4412   535.6011 C5            1 RES     
   14556 C5        -516.8846  -370.5548   536.0329 C5            1 RES     
   14557 C5        -511.3760  -366.5899   531.5624 C5            1 RES     
   14558 C0        -512.7263  -365.8554   531.1811 C0            1 RES     
   14559 C5        -512.4461  -364.2944   531.0743 C5            1 RES     
   14560 C5        -513.3335  -363.3268   531.9326 C5            1 RES     
   14561 C5        -514.6651  -362.9013   531.2492 C5            1 RES     
   14562 C5        -514.5244  -361.8288   530.1430 C5            1 RES     
   14563 C5        -515.8038  -361.6417   529.3040 C5            1 RES     
   14564 C5        -516.9793  -360.9749   530.0354 C5            1 RES     
   14565 C5        -516.7168  -359.5255   530.4883 C5            1 RES     
   14566 C5        -516.3693  -358.5848   529.3301 C5            1 RES     
   14567 C5        -512.5341  -362.0992   532.5195 C5            1 RES     
   14568 C5        -511.5864  -361.3402   531.5501 C5            1 RES     
   14569 C5        -511.0166  -360.0188   532.1132 C5            1 RES     
   14570 C5        -510.1398  -360.1665   533.3726 C5            1 RES     
   14571 C5        -509.5469  -358.8206   533.8575 C5            1 RES     
   14572 C5        -508.5180  -358.2102   532.8804 C5            1 RES     
   14573 C5        -507.9314  -356.8646   533.3483 C5            1 RES     
   14574 C5        -507.1048  -356.9612   534.6306 C5            1 RES     
   14575 H6        -505.9196  -373.9093   529.2515 H6            1 RES     
   14576 H6        -506.0722  -375.3617   528.2091 H6            1 RES     
   14577 H6        -506.7489  -375.3924   529.8806 H6            1 RES     
   14578 H6        -507.7523  -373.6386   527.5340 H6            1 RES     
   14579 H6        -508.5186  -375.1490   528.1404 H6            1 RES     
   14580 H6        -509.7278  -373.2378   529.0153 H6            1 RES     
   14581 H6        -508.9164  -374.0999   530.3716 H6            1 RES     
   14582 H6        -507.9460  -371.5192   528.9696 H6            1 RES     
   14583 H6        -507.0894  -372.3116   530.3502 H6            1 RES     
   14584 H6        -509.9639  -371.2641   530.4171 H6            1 RES     
   14585 H6        -509.0669  -371.9589   531.8253 H6            1 RES     
   14586 H6        -507.3609  -370.0643   531.6090 H6            1 RES     
   14587 H6        -508.3123  -369.4293   530.2232 H6            1 RES     
   14588 H6        -509.2127  -369.5030   533.1913 H6            1 RES     
   14589 H6        -508.8034  -368.0880   532.1492 H6            1 RES     
   14590 H6        -511.1527  -370.0494   531.8741 H6            1 RES     
   14591 H6        -510.7001  -368.9289   530.5788 H6            1 RES     
   14592 H6        -512.5016  -368.1431   531.7905 H6            1 RES     
   14593 H6        -511.1735  -368.1368   534.4368 H6            1 RES     
   14594 H6        -512.5740  -367.0610   534.0484 H6            1 RES     
   14595 H6        -513.9122  -368.8199   533.2134 H6            1 RES     
   14596 H6        -512.5764  -370.0553   533.5120 H6            1 RES     
   14597 H6        -514.4955  -368.7563   535.5027 H6            1 RES     
   14598 H6        -513.1980  -369.9627   535.9064 H6            1 RES     
   14599 H6        -515.4174  -370.4133   533.7449 H6            1 RES     
   14600 H6        -514.1232  -371.5626   534.2106 H6            1 RES     
   14601 H6        -515.1472  -371.8049   536.4761 H6            1 RES     
   14602 H6        -516.1676  -372.3242   535.0861 H6            1 RES     
   14603 H6        -517.4718  -370.2328   535.1442 H6            1 RES     
   14604 H6        -516.5199  -369.6643   536.5803 H6            1 RES     
   14605 H6        -517.5577  -371.1408   536.6947 H6            1 RES     
   14606 H6        -510.8411  -366.7064   530.5950 H6            1 RES     
   14607 H6        -510.7047  -366.0152   532.2364 H6            1 RES     
   14608 H6        -511.4534  -364.1571   531.5434 H6            1 RES     
   14609 H6        -512.2663  -363.9436   530.0387 H6            1 RES     
   14610 H6        -513.6376  -363.9096   532.8313 H6            1 RES     
   14611 H6        -515.1424  -363.8224   530.8543 H6            1 RES     
   14612 H6        -515.3476  -362.4839   532.0208 H6            1 RES     
   14613 H6        -514.2273  -360.8542   530.5748 H6            1 RES     
   14614 H6        -513.7156  -362.1257   529.4493 H6            1 RES     
   14615 H6        -515.5530  -361.0385   528.4079 H6            1 RES     
   14616 H6        -516.1464  -362.6274   528.9278 H6            1 RES     
   14617 H6        -517.2675  -361.5880   530.9149 H6            1 RES     
   14618 H6        -517.8455  -360.9637   529.3381 H6            1 RES     
   14619 H6        -515.9068  -359.4911   531.2456 H6            1 RES     
   14620 H6        -517.6446  -359.1497   530.9702 H6            1 RES     
   14621 H6        -517.1707  -358.6029   528.5607 H6            1 RES     
   14622 H6        -516.2657  -357.5480   529.7117 H6            1 RES     
   14623 H6        -515.4035  -358.8642   528.8609 H6            1 RES     
   14624 H6        -511.8825  -362.4774   533.3366 H6            1 RES     
   14625 H6        -513.2625  -361.3995   532.9841 H6            1 RES     
   14626 H6        -512.1011  -361.0567   530.6224 H6            1 RES     
   14627 H6        -510.7441  -362.0007   531.2531 H6            1 RES     
   14628 H6        -510.4086  -359.5771   531.2989 H6            1 RES     
   14629 H6        -511.8556  -359.3221   532.3332 H6            1 RES     
   14630 H6        -509.3088  -360.8794   533.1803 H6            1 RES     
   14631 H6        -510.7684  -360.5715   534.1914 H6            1 RES     
   14632 H6        -510.3695  -358.0952   534.0420 H6            1 RES     
   14633 H6        -509.0369  -359.0160   534.8261 H6            1 RES     
   14634 H6        -509.0083  -358.0114   531.9069 H6            1 RES     
   14635 H6        -507.6886  -358.9317   532.7134 H6            1 RES     
   14636 H6        -507.2608  -356.4870   532.5448 H6            1 RES     
   14637 H6        -508.7482  -356.1244   533.4888 H6            1 RES     
   14638 H6        -507.7318  -357.2712   535.4905 H6            1 RES     
   14639 H6        -506.6747  -355.9637   534.8647 H6            1 RES     
   14640 H6        -506.2700  -357.6818   534.4988 H6            1 RES     
   14641 C0        -511.7406  -378.6281   534.0599 C0            1 RES     
   14642 C0        -512.0108  -380.0015   533.3226 C0            1 RES     
   14643 C0        -512.0751  -379.8266   531.9813 C0            1 RES     
   14644 S1        -512.3206  -381.2434   531.1159 S1            1 RES     
   14645 C0        -512.3484  -382.2111   532.5123 C0            1 RES     
   14646 C0        -512.2472  -381.3686   533.6287 C0            1 RES     
   14647 C0        -511.9914  -378.4463   531.6779 C0            1 RES     
   14648 C0        -511.8333  -377.7703   532.7931 C0            1 RES     
   14649 C0        -511.9523  -376.3585   532.5588 C0            1 RES     
   14650 C0        -512.2164  -376.0829   531.2295 C0            1 RES     
   14651 S1        -512.2576  -377.5369   530.1669 S1            1 RES     
   14652 H2        -512.3014  -381.7694   534.6077 H2            1 RES     
   14653 H2        -511.9788  -375.6407   533.3233 H2            1 RES     
   14654 N3        -512.0415  -385.7634   533.8275 N3            1 RES     
   14655 C0        -512.1124  -384.4037   533.7726 C0            1 RES     
   14656 C0        -512.3690  -383.7162   532.5566 C0            1 RES     
   14657 C0        -512.5597  -384.5217   531.4131 C0            1 RES     
   14658 N3        -512.8208  -384.0461   530.1677 N3            1 RES     
   14659 S1        -512.9409  -385.4285   529.2729 S1            1 RES     
   14660 N3        -512.6721  -386.6345   530.3641 N3            1 RES     
   14661 C0        -512.4788  -385.9414   531.5173 C0            1 RES     
   14662 C0        -512.2143  -386.5457   532.7340 C0            1 RES     
   14663 H4        -511.9328  -383.8723   534.6842 H4            1 RES     
   14664 C5        -506.7091  -387.4208   529.9074 C5            1 RES     
   14665 C5        -507.9766  -386.5825   529.7426 C5            1 RES     
   14666 C5        -508.4429  -385.9279   531.0541 C5            1 RES     
   14667 C5        -507.4618  -384.8703   531.5923 C5            1 RES     
   14668 C5        -508.0025  -384.2249   532.8774 C5            1 RES     
   14669 C5        -507.1015  -383.0605   533.3444 C5            1 RES     
   14670 C5        -507.6026  -382.3120   534.6083 C5            1 RES     
   14671 C5        -509.0665  -381.8983   534.4484 C5            1 RES     
   14672 C5        -509.6194  -380.8066   535.3989 C5            1 RES     
   14673 C5        -509.8374  -381.1475   536.9236 C5            1 RES     
   14674 C5        -511.0722  -382.0884   536.9929 C5            1 RES     
   14675 C5        -511.7484  -382.6698   538.2401 C5            1 RES     
   14676 C5        -512.9507  -383.5023   537.6846 C5            1 RES     
   14677 C5        -513.8484  -384.2256   538.6869 C5            1 RES     
   14678 C5        -514.7169  -383.2778   539.5049 C5            1 RES     
   14679 C5        -509.2104  -379.3922   534.9628 C5            1 RES     
   14680 C0        -510.4137  -378.3634   535.0053 C0            1 RES     
   14681 C5        -509.8253  -376.8956   535.1667 C5            1 RES     
   14682 C5        -510.3487  -376.0195   536.3580 C5            1 RES     
   14683 C5        -511.6446  -375.2175   536.0439 C5            1 RES     
   14684 C5        -511.4429  -373.9546   535.1732 C5            1 RES     
   14685 C5        -512.7623  -373.3525   534.6513 C5            1 RES     
   14686 C5        -513.6470  -372.6833   535.7148 C5            1 RES     
   14687 C5        -513.0168  -371.4520   536.3942 C5            1 RES     
   14688 C5        -512.6513  -370.3389   535.4071 C5            1 RES     
   14689 C5        -509.2277  -375.1260   537.0179 C5            1 RES     
   14690 C5        -508.2935  -374.3365   536.0598 C5            1 RES     
   14691 C5        -507.3777  -373.3075   536.7601 C5            1 RES     
   14692 C5        -506.3765  -373.9013   537.7709 C5            1 RES     
   14693 C5        -505.4448  -372.8344   538.3965 C5            1 RES     
   14694 C5        -504.4651  -372.1992   537.3853 C5            1 RES     
   14695 C5        -503.5419  -371.1274   537.9958 C5            1 RES     
   14696 C5        -502.5750  -371.6691   539.0486 C5            1 RES     
   14697 H6        -505.8468  -386.7921   530.2074 H6            1 RES     
   14698 H6        -506.4585  -387.9054   528.9403 H6            1 RES     
   14699 H6        -506.8716  -388.2133   530.6687 H6            1 RES     
   14700 H6        -507.8124  -385.8045   528.9652 H6            1 RES     
   14701 H6        -508.7856  -387.2575   529.3870 H6            1 RES     
   14702 H6        -509.4156  -385.4275   530.8480 H6            1 RES     
   14703 H6        -508.6160  -386.7155   531.8190 H6            1 RES     
   14704 H6        -507.3345  -384.0866   530.8121 H6            1 RES     
   14705 H6        -506.4727  -385.3216   531.8119 H6            1 RES     
   14706 H6        -509.0148  -383.8334   532.6409 H6            1 RES     
   14707 H6        -508.0891  -384.9888   533.6794 H6            1 RES     
   14708 H6        -506.0687  -383.4259   533.5299 H6            1 RES     
   14709 H6        -507.0564  -382.3234   532.5112 H6            1 RES     
   14710 H6        -507.5033  -382.9413   535.5186 H6            1 RES     
   14711 H6        -506.9596  -381.4134   534.7275 H6            1 RES     
   14712 H6        -509.6880  -382.8107   534.5151 H6            1 RES     
   14713 H6        -509.2028  -381.5117   533.4127 H6            1 RES     
   14714 H6        -510.5956  -380.7332   535.0816 H6            1 RES     
   14715 H6        -508.9209  -381.5884   537.3687 H6            1 RES     
   14716 H6        -510.1008  -380.2231   537.4835 H6            1 RES     
   14717 H6        -511.8922  -381.4709   536.5806 H6            1 RES     
   14718 H6        -510.8222  -382.9562   536.3596 H6            1 RES     
   14719 H6        -512.1038  -381.8518   538.9034 H6            1 RES     
   14720 H6        -511.0490  -383.3276   538.7965 H6            1 RES     
   14721 H6        -513.6078  -382.8561   537.0554 H6            1 RES     
   14722 H6        -512.5348  -384.2915   537.0203 H6            1 RES     
   14723 H6        -513.2408  -384.8818   539.3425 H6            1 RES     
   14724 H6        -514.5424  -384.8691   538.0982 H6            1 RES     
   14725 H6        -515.3464  -382.6562   538.8299 H6            1 RES     
   14726 H6        -514.0935  -382.6209   540.1417 H6            1 RES     
   14727 H6        -515.3944  -383.8771   540.1501 H6            1 RES     
   14728 H6        -508.8616  -379.3674   533.9077 H6            1 RES     
   14729 H6        -508.3398  -379.1207   535.5980 H6            1 RES     
   14730 H6        -508.7680  -377.0497   535.4545 H6            1 RES     
   14731 H6        -509.7296  -376.3459   534.2093 H6            1 RES     
   14732 H6        -510.6342  -376.7367   537.1605 H6            1 RES     
   14733 H6        -512.3606  -375.9202   535.5689 H6            1 RES     
   14734 H6        -512.1004  -374.8824   537.0007 H6            1 RES     
   14735 H6        -510.8840  -373.1780   535.7291 H6            1 RES     
   14736 H6        -510.8277  -374.2152   534.2916 H6            1 RES     
   14737 H6        -512.5236  -372.6073   533.8656 H6            1 RES     
   14738 H6        -513.3594  -374.1450   534.1552 H6            1 RES     
   14739 H6        -513.9263  -373.4276   536.4896 H6            1 RES     
   14740 H6        -514.5840  -372.3553   535.2137 H6            1 RES     
   14741 H6        -512.1155  -371.7409   536.9728 H6            1 RES     
   14742 H6        -513.7612  -371.0450   537.1114 H6            1 RES     
   14743 H6        -513.5427  -370.0331   534.8185 H6            1 RES     
   14744 H6        -512.2733  -369.4571   535.9646 H6            1 RES     
   14745 H6        -511.8477  -370.6636   534.7143 H6            1 RES     
   14746 H6        -508.5586  -375.7956   537.6003 H6            1 RES     
   14747 H6        -509.7130  -374.4403   537.7461 H6            1 RES     
   14748 H6        -508.8670  -373.7552   535.3256 H6            1 RES     
   14749 H6        -507.6651  -375.0445   535.4786 H6            1 RES     
   14750 H6        -506.8165  -372.7985   535.9515 H6            1 RES     
   14751 H6        -508.0065  -372.5472   537.2740 H6            1 RES     
   14752 H6        -505.7548  -374.6823   537.2817 H6            1 RES     
   14753 H6        -506.9493  -374.3728   538.5952 H6            1 RES     
   14754 H6        -506.0568  -372.0411   538.8792 H6            1 RES     
   14755 H6        -504.8510  -373.3405   539.1889 H6            1 RES     
   14756 H6        -505.0399  -371.6921   536.5852 H6            1 RES     
   14757 H6        -503.8430  -372.9942   536.9190 H6            1 RES     
   14758 H6        -502.9323  -370.6932   537.1726 H6            1 RES     
   14759 H6        -504.1518  -370.3105   538.4381 H6            1 RES     
   14760 H6        -503.1197  -372.0597   539.9314 H6            1 RES     
   14761 H6        -501.9119  -370.8469   539.3939 H6            1 RES     
   14762 H6        -501.9424  -372.4725   538.6153 H6            1 RES     
   14763 C0        -511.7661  -391.4237   534.9804 C0            1 RES     
   14764 C0        -512.4295  -392.5134   534.0448 C0            1 RES     
   14765 C0        -512.6522  -392.0164   532.8050 C0            1 RES     
   14766 S1        -513.3200  -393.1216   531.7329 S1            1 RES     
   14767 C0        -513.3473  -394.3730   532.8819 C0            1 RES     
   14768 C0        -512.9047  -393.8509   534.1058 C0            1 RES     
   14769 C0        -512.3213  -390.6402   532.7786 C0            1 RES     
   14770 C0        -511.8595  -390.2869   533.9565 C0            1 RES     
   14771 C0        -511.7072  -388.8615   534.0418 C0            1 RES     
   14772 C0        -512.0997  -388.2361   532.8723 C0            1 RES     
   14773 S1        -512.6072  -389.3657   531.5641 S1            1 RES     
   14774 H2        -512.8981  -394.4570   534.9745 H2            1 RES     
   14775 H2        -511.4665  -388.3526   534.9269 H2            1 RES     
   14776 N3        -513.6158  -398.1332   533.3627 N3            1 RES     
   14777 C0        -513.4019  -396.8087   533.6004 C0            1 RES     
   14778 C0        -513.6824  -395.8180   532.6220 C0            1 RES     
   14779 C0        -514.2075  -396.2826   531.3968 C0            1 RES     
   14780 N3        -514.5420  -395.4866   530.3481 N3            1 RES     
   14781 S1        -515.0855  -396.5738   529.2307 S1            1 RES     
   14782 N3        -514.9225  -398.0324   529.9813 N3            1 RES     
   14783 C0        -514.4174  -397.6780   531.1924 C0            1 RES     
   14784 C0        -514.1114  -398.5906   532.1868 C0            1 RES     
   14785 H4        -512.9802  -396.5490   534.5492 H4            1 RES     
   14786 C5        -509.3997  -399.7194   528.2386 C5            1 RES     
   14787 C5        -510.4689  -398.6573   528.4942 C5            1 RES     
   14788 C5        -510.5856  -398.2618   529.9760 C5            1 RES     
   14789 C5        -509.3327  -397.5509   530.5197 C5            1 RES     
   14790 C5        -509.5271  -397.1448   531.9886 C5            1 RES     
   14791 C5        -508.3392  -396.3010   532.5011 C5            1 RES     
   14792 C5        -508.4765  -395.7984   533.9630 C5            1 RES     
   14793 C5        -509.8253  -395.1087   534.1747 C5            1 RES     
   14794 C5        -509.9856  -394.1946   535.4155 C5            1 RES     
   14795 C5        -510.0438  -394.8443   536.8517 C5            1 RES     
   14796 C5        -511.4269  -395.5436   536.9638 C5            1 RES     
   14797 C5        -512.0200  -396.2770   538.1726 C5            1 RES     
   14798 C5        -513.4410  -396.7299   537.7005 C5            1 RES     
   14799 C5        -514.3144  -397.5019   538.6879 C5            1 RES     
   14800 C5        -514.8297  -396.6386   539.8327 C5            1 RES     
   14801 C5        -509.3527  -392.8112   535.2062 C5            1 RES     
   14802 C0        -510.2886  -391.6276   535.6873 C0            1 RES     
   14803 C5        -509.3829  -390.3666   536.0280 C5            1 RES     
   14804 C5        -509.5251  -389.7209   537.4506 C5            1 RES     
   14805 C5        -510.6516  -388.6530   537.5610 C5            1 RES     
   14806 C5        -510.3155  -387.2749   536.9433 C5            1 RES     
   14807 C5        -511.5381  -386.3446   536.8179 C5            1 RES     
   14808 C5        -512.0922  -385.8029   538.1450 C5            1 RES     
   14809 C5        -511.1203  -384.8982   538.9269 C5            1 RES     
   14810 C5        -510.6752  -383.6642   538.1356 C5            1 RES     
   14811 C5        -508.1542  -389.2203   538.0508 C5            1 RES     
   14812 C5        -507.2249  -388.4019   537.1124 C5            1 RES     
   14813 C5        -506.0172  -387.7454   537.8184 C5            1 RES     
   14814 C5        -505.0280  -388.7282   538.4760 C5            1 RES     
   14815 C5        -503.8079  -388.0206   539.1150 C5            1 RES     
   14816 C5        -502.8754  -387.3450   538.0854 C5            1 RES     
   14817 C5        -501.6647  -386.6276   538.7125 C5            1 RES     
   14818 C5        -500.6913  -387.5646   539.4276 C5            1 RES     
   14819 H6        -508.3883  -399.3409   528.4891 H6            1 RES     
   14820 H6        -509.4041  -399.9965   527.1633 H6            1 RES     
   14821 H6        -509.6136  -400.6289   528.8393 H6            1 RES     
   14822 H6        -510.2589  -397.7581   527.8746 H6            1 RES     
   14823 H6        -511.4469  -399.0761   528.1707 H6            1 RES     
   14824 H6        -511.4484  -397.5643   530.0666 H6            1 RES     
   14825 H6        -510.8080  -399.1656   530.5833 H6            1 RES     
   14826 H6        -509.1575  -396.6391   529.9057 H6            1 RES     
   14827 H6        -508.4415  -398.2075   530.4489 H6            1 RES     
   14828 H6        -510.4559  -396.5373   532.0355 H6            1 RES     
   14829 H6        -509.6555  -398.0501   532.6197 H6            1 RES     
   14830 H6        -507.3926  -396.8751   532.4066 H6            1 RES     
   14831 H6        -508.2612  -395.4067   531.8426 H6            1 RES     
   14832 H6        -508.3806  -396.6333   534.6899 H6            1 RES     
   14833 H6        -507.6459  -395.0807   534.1370 H6            1 RES     
   14834 H6        -510.6106  -395.8875   534.1722 H6            1 RES     
   14835 H6        -510.0273  -394.4695   533.2851 H6            1 RES     
   14836 H6        -510.9594  -393.8782   535.3131 H6            1 RES     
   14837 H6        -509.1871  -395.5319   537.0135 H6            1 RES     
   14838 H6        -510.0178  -394.0480   537.6280 H6            1 RES     
   14839 H6        -512.1477  -394.7121   536.8510 H6            1 RES     
   14840 H6        -511.4645  -396.2661   536.1311 H6            1 RES     
   14841 H6        -512.0904  -395.5907   539.0441 H6            1 RES     
   14842 H6        -511.4030  -397.1601   538.4386 H6            1 RES     
   14843 H6        -514.0303  -395.8480   537.3541 H6            1 RES     
   14844 H6        -513.3061  -397.3989   536.8223 H6            1 RES     
   14845 H6        -513.7710  -398.3910   539.0671 H6            1 RES     
   14846 H6        -515.2091  -397.8553   538.1248 H6            1 RES     
   14847 H6        -515.4044  -395.7741   539.4320 H6            1 RES     
   14848 H6        -513.9933  -396.2713   540.4582 H6            1 RES     
   14849 H6        -515.5167  -397.2458   540.4602 H6            1 RES     
   14850 H6        -509.1665  -392.5980   534.1313 H6            1 RES     
   14851 H6        -508.3602  -392.8552   535.7043 H6            1 RES     
   14852 H6        -508.3523  -390.7674   536.0702 H6            1 RES     
   14853 H6        -509.3144  -389.6307   535.2025 H6            1 RES     
   14854 H6        -509.8356  -390.5468   538.1299 H6            1 RES     
   14855 H6        -511.5633  -389.0862   537.0992 H6            1 RES     
   14856 H6        -510.8788  -388.4804   538.6352 H6            1 RES     
   14857 H6        -509.5277  -386.7628   537.5278 H6            1 RES     
   14858 H6        -509.9074  -387.4221   535.9258 H6            1 RES     
   14859 H6        -511.2643  -385.4877   536.1695 H6            1 RES     
   14860 H6        -512.3572  -386.8794   536.2950 H6            1 RES     
   14861 H6        -512.4066  -386.6492   538.7910 H6            1 RES     
   14862 H6        -513.0010  -385.2064   537.9105 H6            1 RES     
   14863 H6        -510.2261  -385.4695   539.2507 H6            1 RES     
   14864 H6        -511.6462  -384.5493   539.8412 H6            1 RES     
   14865 H6        -511.5576  -383.0761   537.8038 H6            1 RES     
   14866 H6        -510.0394  -383.0202   538.7778 H6            1 RES     
   14867 H6        -510.0709  -383.9506   537.2503 H6            1 RES     
   14868 H6        -507.5652  -390.1155   538.3454 H6            1 RES     
   14869 H6        -508.3687  -388.6531   538.9827 H6            1 RES     
   14870 H6        -507.7629  -387.5716   536.6359 H6            1 RES     
   14871 H6        -506.8552  -389.0503   536.2898 H6            1 RES     
   14872 H6        -505.4859  -387.1652   537.0381 H6            1 RES     
   14873 H6        -506.3861  -387.0309   538.5873 H6            1 RES     
   14874 H6        -504.6668  -389.4671   537.7281 H6            1 RES     
   14875 H6        -505.5601  -389.2742   539.2813 H6            1 RES     
   14876 H6        -504.1581  -387.2701   539.8573 H6            1 RES     
   14877 H6        -503.2256  -388.7963   539.6588 H6            1 RES     
   14878 H6        -503.4403  -386.5698   537.5307 H6            1 RES     
   14879 H6        -502.5135  -388.1027   537.3565 H6            1 RES     
   14880 H6        -501.1049  -386.1240   537.8936 H6            1 RES     
   14881 H6        -502.0138  -385.8454   539.4205 H6            1 RES     
   14882 H6        -501.1703  -388.0521   540.3001 H6            1 RES     
   14883 H6        -499.8242  -386.9772   539.7991 H6            1 RES     
   14884 H6        -500.3160  -388.3400   538.7266 H6            1 RES     
   14885 C0        -514.3893  -403.8635   533.2647 C0            1 RES     
   14886 C0        -515.4009  -404.5663   532.2719 C0            1 RES     
   14887 C0        -515.6929  -403.7579   531.2256 C0            1 RES     
   14888 S1        -516.7323  -404.4423   530.0994 S1            1 RES     
   14889 C0        -516.8564  -405.9062   530.9531 C0            1 RES     
   14890 C0        -516.1366  -405.7756   532.1495 C0            1 RES     
   14891 C0        -515.0832  -402.4947   531.4168 C0            1 RES     
   14892 C0        -514.3877  -402.5178   532.5310 C0            1 RES     
   14893 C0        -513.9235  -401.2028   532.8737 C0            1 RES     
   14894 C0        -514.3416  -400.2588   531.9535 C0            1 RES     
   14895 S1        -515.2663  -400.9384   530.5650 S1            1 RES     
   14896 H2        -516.1314  -406.5621   532.8589 H2            1 RES     
   14897 H2        -513.4516  -400.9690   533.7809 H2            1 RES     
   14898 N3        -517.8482  -409.5661   530.7009 N3            1 RES     
   14899 C0        -517.3234  -408.3944   531.1576 C0            1 RES     
   14900 C0        -517.5271  -407.1663   530.4738 C0            1 RES     
   14901 C0        -518.3145  -407.2272   529.3037 C0            1 RES     
   14902 N3        -518.6223  -406.1590   528.5230 N3            1 RES     
   14903 S1        -519.5445  -406.8371   527.3332 S1            1 RES     
   14904 N3        -519.5880  -408.4377   527.7257 N3            1 RES     
   14905 C0        -518.8455  -408.4752   528.8638 C0            1 RES     
   14906 C0        -518.5982  -409.6370   529.5739 C0            1 RES     
   14907 H4        -516.7207  -408.4455   532.0406 H4            1 RES     
   14908 C5        -514.8726  -410.6026   524.6495 C5            1 RES     
   14909 C5        -515.6404  -409.4613   525.3162 C5            1 RES     
   14910 C5        -515.4497  -409.4150   526.8418 C5            1 RES     
   14911 C5        -514.0076  -409.0843   527.2681 C5            1 RES     
   14912 C5        -513.8916  -409.0112   528.7983 C5            1 RES     
   14913 C5        -512.4885  -408.5347   529.2342 C5            1 RES     
   14914 C5        -512.2977  -408.3777   530.7663 C5            1 RES     
   14915 C5        -513.4216  -407.5329   531.3687 C5            1 RES     
   14916 C5        -513.1977  -406.9261   532.7768 C5            1 RES     
   14917 C5        -513.1806  -407.8780   534.0346 C5            1 RES     
   14918 C5        -514.6492  -408.3305   534.2653 C5            1 RES     
   14919 C5        -515.2001  -409.2145   535.3904 C5            1 RES     
   14920 C5        -516.7388  -409.2862   535.1176 C5            1 RES     
   14921 C5        -517.6013  -410.1055   536.0761 C5            1 RES     
   14922 C5        -517.7454  -409.4624   537.4498 C5            1 RES     
   14923 C5        -512.3219  -405.6655   532.7359 C5            1 RES     
   14924 C0        -512.9016  -404.4850   533.6183 C0            1 RES     
   14925 C5        -511.7072  -403.5197   534.0284 C5            1 RES     
   14926 C5        -511.4965  -403.2158   535.5528 C5            1 RES     
   14927 C5        -512.3397  -402.0245   536.0923 C5            1 RES     
   14928 C5        -511.8119  -400.6198   535.7153 C5            1 RES     
   14929 C5        -512.8122  -399.4871   536.0189 C5            1 RES     
   14930 C5        -513.0356  -399.1877   537.5095 C5            1 RES     
   14931 C5        -511.7882  -398.6793   538.2579 C5            1 RES     
   14932 C5        -511.2116  -397.3902   537.6639 C5            1 RES     
   14933 C5        -509.9770  -403.1201   535.9680 C5            1 RES     
   14934 C5        -509.0433  -402.2779   535.0553 C5            1 RES     
   14935 C5        -507.6325  -402.0300   535.6350 C5            1 RES     
   14936 C5        -506.7901  -403.2984   535.8764 C5            1 RES     
   14937 C5        -505.3663  -402.9877   536.3998 C5            1 RES     
   14938 C5        -504.4736  -402.2609   535.3699 C5            1 RES     
   14939 C5        -503.0585  -401.9365   535.8857 C5            1 RES     
   14940 C5        -502.2131  -403.1720   536.1947 C5            1 RES     
   14941 H6        -513.7781  -410.4776   524.7730 H6            1 RES     
   14942 H6        -515.0949  -410.6112   523.5616 H6            1 RES     
   14943 H6        -515.1848  -411.5769   525.0822 H6            1 RES     
   14944 H6        -515.3369  -408.4917   524.8641 H6            1 RES     
   14945 H6        -516.7221  -409.6134   525.1080 H6            1 RES     
   14946 H6        -516.1205  -408.6190   527.2363 H6            1 RES     
   14947 H6        -515.7680  -410.3839   527.2835 H6            1 RES     
   14948 H6        -513.7343  -408.0979   526.8306 H6            1 RES     
   14949 H6        -513.2978  -409.8509   526.8954 H6            1 RES     
   14950 H6        -514.6518  -408.2793   529.1451 H6            1 RES     
   14951 H6        -514.1158  -410.0036   529.2446 H6            1 RES     
   14952 H6        -511.7110  -409.2266   528.8449 H6            1 RES     
   14953 H6        -512.3193  -407.5375   528.7689 H6            1 RES     
   14954 H6        -512.2761  -409.3649   531.2759 H6            1 RES     
   14955 H6        -511.3165  -407.8788   530.9201 H6            1 RES     
   14956 H6        -514.3467  -408.1389   531.3585 H6            1 RES     
   14957 H6        -513.6114  -406.6754   530.6835 H6            1 RES     
   14958 H6        -514.0856  -406.4291   532.9298 H6            1 RES     
   14959 H6        -512.4765  -408.7233   533.8856 H6            1 RES     
   14960 H6        -512.8707  -407.3060   534.9370 H6            1 RES     
   14961 H6        -515.1842  -407.3830   534.4645 H6            1 RES     
   14962 H6        -514.9628  -408.8164   533.3260 H6            1 RES     
   14963 H6        -514.9927  -408.7536   536.3803 H6            1 RES     
   14964 H6        -514.7537  -410.2296   535.3477 H6            1 RES     
   14965 H6        -517.1705  -408.2581   535.0776 H6            1 RES     
   14966 H6        -516.8812  -409.7405   534.1125 H6            1 RES     
   14967 H6        -517.2106  -411.1403   536.1549 H6            1 RES     
   14968 H6        -518.6240  -410.1528   535.6352 H6            1 RES     
   14969 H6        -518.1748  -408.4406   537.3512 H6            1 RES     
   14970 H6        -516.7668  -409.4065   537.9646 H6            1 RES     
   14971 H6        -518.4458  -410.0713   538.0605 H6            1 RES     
   14972 H6        -512.2552  -405.2390   531.7116 H6            1 RES     
   14973 H6        -511.2992  -405.9996   533.0147 H6            1 RES     
   14974 H6        -510.7914  -404.0931   533.7895 H6            1 RES     
   14975 H6        -511.6058  -402.6324   533.3724 H6            1 RES     
   14976 H6        -511.8724  -404.1119   536.0965 H6            1 RES     
   14977 H6        -513.3810  -402.1690   535.7358 H6            1 RES     
   14978 H6        -512.3636  -402.0749   537.2024 H6            1 RES     
   14979 H6        -510.8554  -400.4074   536.2295 H6            1 RES     
   14980 H6        -511.5995  -400.5903   534.6301 H6            1 RES     
   14981 H6        -512.4605  -398.5622   535.5182 H6            1 RES     
   14982 H6        -513.7948  -399.7304   535.5651 H6            1 RES     
   14983 H6        -513.4246  -400.0948   538.0178 H6            1 RES     
   14984 H6        -513.8203  -398.4030   537.5802 H6            1 RES     
   14985 H6        -510.9990  -399.4586   538.2809 H6            1 RES     
   14986 H6        -512.0864  -398.4710   539.3076 H6            1 RES     
   14987 H6        -511.9870  -396.5950   537.6344 H6            1 RES     
   14988 H6        -510.3651  -397.0388   538.2896 H6            1 RES     
   14989 H6        -510.8200  -397.5593   536.6397 H6            1 RES     
   14990 H6        -509.5559  -404.1486   535.9555 H6            1 RES     
   14991 H6        -509.9253  -402.7620   537.0192 H6            1 RES     
   14992 H6        -509.4558  -401.2773   534.8700 H6            1 RES     
   14993 H6        -508.9464  -402.7668   534.0625 H6            1 RES     
   14994 H6        -507.1107  -401.3833   534.9019 H6            1 RES     
   14995 H6        -507.7224  -401.4653   536.5893 H6            1 RES     
   14996 H6        -506.7097  -403.8899   534.9386 H6            1 RES     
   14997 H6        -507.3017  -403.9182   536.6405 H6            1 RES     
   14998 H6        -505.4345  -402.3857   537.3324 H6            1 RES     
   14999 H6        -504.8894  -403.9601   536.6523 H6            1 RES     
   15000 H6        -504.9353  -401.2896   535.1035 H6            1 RES     
   15001 H6        -504.3936  -402.8751   534.4464 H6            1 RES     
   15002 H6        -502.5312  -401.3587   535.0945 H6            1 RES     
   15003 H6        -503.1238  -401.2962   536.7916 H6            1 RES     
   15004 H6        -502.6510  -403.7613   537.0251 H6            1 RES     
   15005 H6        -501.1953  -402.8509   536.5046 H6            1 RES     
   15006 H6        -502.1199  -403.8121   535.2919 H6            1 RES     
   15007 C0        -519.8341  -414.8824   529.5889 C0            1 RES     
   15008 C0        -521.1079  -415.1409   528.6869 C0            1 RES     
   15009 C0        -521.3717  -414.0688   527.9029 C0            1 RES     
   15010 S1        -522.6879  -414.2732   526.8818 S1            1 RES     
   15011 C0        -522.9945  -415.8530   527.4273 C0            1 RES     
   15012 C0        -522.0948  -416.1384   528.4644 C0            1 RES     
   15013 C0        -520.4846  -413.0140   528.2265 C0            1 RES     
   15014 C0        -519.6534  -413.4226   529.1581 C0            1 RES     
   15015 C0        -518.8735  -412.3289   529.6657 C0            1 RES     
   15016 C0        -519.2114  -411.1351   529.0546 C0            1 RES     
   15017 S1        -520.4547  -411.2926   527.7607 S1            1 RES     
   15018 H2        -522.1531  -417.0594   528.9844 H2            1 RES     
   15019 H2        -518.2338  -412.4036   530.4937 H2            1 RES     
   15020 N3        -524.7717  -419.1163   526.6306 N3            1 RES     
   15021 C0        -523.9471  -418.1972   527.2068 C0            1 RES     
   15022 C0        -523.9823  -416.8257   526.8393 C0            1 RES     
   15023 C0        -524.9285  -416.4680   525.8547 C0            1 RES     
   15024 N3        -525.1127  -415.2080   525.3816 N3            1 RES     
   15025 S1        -526.3239  -415.4118   524.2783 S1            1 RES     
   15026 N3        -526.6500  -417.0267   524.3377 N3            1 RES     
   15027 C0        -525.7729  -417.4629   525.2802 C0            1 RES     
   15028 C0        -525.6775  -418.7850   525.6781 C0            1 RES     
   15029 H4        -523.2455  -418.5613   527.9284 H4            1 RES     
   15030 C5        -523.0135  -419.1902   520.0388 C5            1 RES     
   15031 C5        -523.4126  -418.1236   521.0585 C5            1 RES     
   15032 C5        -522.9932  -418.4752   522.4961 C5            1 RES     
   15033 C5        -521.4669  -418.5130   522.6958 C5            1 RES     
   15034 C5        -521.1133  -418.8270   524.1576 C5            1 RES     
   15035 C5        -519.5922  -418.7209   524.4038 C5            1 RES     
   15036 C5        -519.1480  -418.9683   525.8701 C5            1 RES     
   15037 C5        -519.9638  -418.1074   526.8361 C5            1 RES     
   15038 C5        -519.4100  -417.9014   528.2685 C5            1 RES     
   15039 C5        -519.4111  -419.1126   529.2791 C5            1 RES     
   15040 C5        -520.8919  -419.3426   529.6903 C5            1 RES     
   15041 C5        -521.4467  -420.3581   530.6963 C5            1 RES     
   15042 C5        -522.9882  -420.0924   530.7150 C5            1 RES     
   15043 C5        -523.8546  -420.9518   531.6340 C5            1 RES     
   15044 C5        -523.6533  -420.6384   533.1114 C5            1 RES     
   15045 C5        -518.3009  -416.8405   528.3178 C5            1 RES     
   15046 C0        -518.4782  -415.8207   529.5165 C0            1 RES     
   15047 C5        -517.0579  -415.2050   529.8774 C5            1 RES     
   15048 C5        -516.5643  -415.3136   531.3625 C5            1 RES     
   15049 C5        -517.0443  -414.1558   532.2847 C5            1 RES     
   15050 C5        -516.2901  -412.8166   532.1074 C5            1 RES     
   15051 C5        -516.9692  -411.6313   532.8213 C5            1 RES     
   15052 C5        -516.9008  -411.6603   534.3562 C5            1 RES     
   15053 C5        -515.4770  -411.5707   534.9389 C5            1 RES     
   15054 C5        -514.7324  -410.2989   534.5203 C5            1 RES     
   15055 C5        -515.0152  -415.5869   531.4889 C5            1 RES     
   15056 C5        -514.0684  -414.7289   530.6049 C5            1 RES     
   15057 C5        -512.5674  -414.8767   530.9412 C5            1 RES     
   15058 C5        -511.9894  -416.2935   530.7532 C5            1 RES     
   15059 C5        -510.4707  -416.3704   531.0458 C5            1 RES     
   15060 C5        -509.6054  -415.5876   530.0335 C5            1 RES     
   15061 C5        -508.0934  -415.6479   530.3233 C5            1 RES     
   15062 C5        -507.4954  -417.0499   530.2062 C5            1 RES     
   15063 H6        -521.9116  -419.2917   519.9727 H6            1 RES     
   15064 H6        -523.3907  -418.9010   519.0352 H6            1 RES     
   15065 H6        -523.4593  -420.1692   520.3158 H6            1 RES     
   15066 H6        -522.9791  -417.1430   520.7636 H6            1 RES     
   15067 H6        -524.5204  -418.0301   521.0352 H6            1 RES     
   15068 H6        -523.4126  -417.6909   523.1655 H6            1 RES     
   15069 H6        -523.4424  -419.4501   522.7840 H6            1 RES     
   15070 H6        -521.0568  -417.5145   522.4241 H6            1 RES     
   15071 H6        -521.0004  -419.2812   522.0458 H6            1 RES     
   15072 H6        -521.6397  -418.0769   524.7855 H6            1 RES     
   15073 H6        -521.4760  -419.8419   524.4271 H6            1 RES     
   15074 H6        -519.0467  -419.4257   523.7401 H6            1 RES     
   15075 H6        -519.2844  -417.6872   524.1277 H6            1 RES     
   15076 H6        -519.2630  -420.0363   526.1543 H6            1 RES     
   15077 H6        -518.0713  -418.7000   525.9310 H6            1 RES     
   15078 H6        -520.9882  -418.5220   526.8805 H6            1 RES     
   15079 H6        -520.0651  -417.0921   526.3892 H6            1 RES     
   15080 H6        -520.1386  -417.3073   528.6869 H6            1 RES     
   15081 H6        -518.9338  -420.0082   528.8289 H6            1 RES     
   15082 H6        -518.8564  -418.8348   530.2024 H6            1 RES     
   15083 H6        -521.1767  -418.3909   530.1771 H6            1 RES     
   15084 H6        -521.4374  -419.5288   528.7498 H6            1 RES     
   15085 H6        -521.0017  -420.1891   531.7007 H6            1 RES     
   15086 H6        -521.2389  -421.3959   530.3630 H6            1 RES     
   15087 H6        -523.1913  -419.0249   530.9687 H6            1 RES     
   15088 H6        -523.3713  -420.2627   529.6849 H6            1 RES     
   15089 H6        -523.6868  -422.0276   531.4241 H6            1 RES     
   15090 H6        -524.9174  -420.7132   531.3973 H6            1 RES     
   15091 H6        -523.8643  -419.5635   533.3072 H6            1 RES     
   15092 H6        -522.6204  -420.8787   533.4292 H6            1 RES     
   15093 H6        -524.3697  -421.2426   533.7082 H6            1 RES     
   15094 H6        -518.2967  -416.2014   527.4084 H6            1 RES     
   15095 H6        -517.3436  -417.4051   528.3213 H6            1 RES     
   15096 H6        -516.3314  -415.8564   529.3557 H6            1 RES     
   15097 H6        -516.8672  -414.2192   529.4088 H6            1 RES     
   15098 H6        -517.0385  -416.2331   531.7742 H6            1 RES     
   15099 H6        -518.1334  -414.0269   532.1128 H6            1 RES     
   15100 H6        -516.9142  -414.4635   533.3448 H6            1 RES     
   15101 H6        -515.2451  -412.9033   532.4608 H6            1 RES     
   15102 H6        -516.2390  -412.5678   531.0308 H6            1 RES     
   15103 H6        -516.5059  -410.6903   532.4614 H6            1 RES     
   15104 H6        -518.0371  -411.5839   532.5247 H6            1 RES     
   15105 H6        -517.3952  -412.5795   534.7343 H6            1 RES     
   15106 H6        -517.4804  -410.7898   534.7343 H6            1 RES     
   15107 H6        -514.8780  -412.4590   534.6509 H6            1 RES     
   15108 H6        -515.5654  -411.5688   536.0463 H6            1 RES     
   15109 H6        -515.3156  -409.3963   534.8026 H6            1 RES     
   15110 H6        -513.7475  -410.2600   535.0301 H6            1 RES     
   15111 H6        -514.5417  -410.2857   533.4274 H6            1 RES     
   15112 H6        -514.8302  -416.6403   531.1868 H6            1 RES     
   15113 H6        -514.7335  -415.5035   532.5612 H6            1 RES     
   15114 H6        -514.2802  -413.6566   530.7098 H6            1 RES     
   15115 H6        -514.2259  -414.9772   529.5337 H6            1 RES     
   15116 H6        -512.0336  -414.1761   530.2689 H6            1 RES     
   15117 H6        -512.3926  -414.5482   531.9897 H6            1 RES     
   15118 H6        -512.1766  -416.6500   529.7171 H6            1 RES     
   15119 H6        -512.5029  -416.9777   531.4589 H6            1 RES     
   15120 H6        -510.2701  -416.0047   532.0767 H6            1 RES     
   15121 H6        -510.1807  -417.4429   530.9987 H6            1 RES     
   15122 H6        -509.8831  -414.5154   530.0641 H6            1 RES     
   15123 H6        -509.7959  -415.9691   529.0066 H6            1 RES     
   15124 H6        -507.5776  -415.0003   529.5801 H6            1 RES     
   15125 H6        -507.8859  -415.2399   531.3359 H6            1 RES     
   15126 H6        -507.9216  -417.7334   530.9676 H6            1 RES     
   15127 H6        -506.3982  -416.9949   530.3738 H6            1 RES     
   15128 H6        -507.6756  -417.4633   529.1913 H6            1 RES     
   15129 C0        -527.9897  -423.5839   524.8620 C0            1 RES     
   15130 C0        -529.4082  -423.3936   524.1877 C0            1 RES     
   15131 C0        -529.5496  -422.1368   523.7039 C0            1 RES     
   15132 S1        -531.0152  -421.8590   522.9345 S1            1 RES     
   15133 C0        -531.5683  -423.4444   523.1956 C0            1 RES     
   15134 C0        -530.6073  -424.1210   523.9605 C0            1 RES     
   15135 C0        -528.4199  -421.3612   524.0591 C0            1 RES     
   15136 C0        -527.5669  -422.1185   524.7108 C0            1 RES     
   15137 C0        -526.5051  -421.3306   525.2711 C0            1 RES     
   15138 C0        -526.6665  -419.9856   524.9923 C0            1 RES     
   15139 S1        -528.0919  -419.6111   523.9564 S1            1 RES     
   15140 H2        -530.7836  -425.1142   524.2835 H2            1 RES     
   15141 H2        -525.7810  -421.7107   525.9281 H2            1 RES     
   15142 N3        -534.0995  -426.0618   522.1075 N3            1 RES     
   15143 C0        -533.0217  -425.4650   522.6896 C0            1 RES     
   15144 C0        -532.8169  -424.0611   522.6226 C0            1 RES     
   15145 C0        -533.7996  -423.3198   521.9316 C0            1 RES     
   15146 N3        -533.7781  -421.9713   521.7693 N3            1 RES     
   15147 S1        -535.1543  -421.6918   520.9009 S1            1 RES     
   15148 N3        -535.8054  -423.1918   520.6918 N3            1 RES     
   15149 C0        -534.9125  -423.9860   521.3396 C0            1 RES     
   15150 C0        -535.0441  -425.3604   521.4343 C0            1 RES     
   15151 H4        -532.3154  -426.1071   523.1736 H4            1 RES     
   15152 C5        -533.3911  -424.8744   515.4264 C5            1 RES     
   15153 C5        -533.3979  -424.0278   516.6991 C5            1 RES     
   15154 C5        -532.8558  -424.7786   517.9272 C5            1 RES     
   15155 C5        -531.3605  -425.1295   517.8185 C5            1 RES     
   15156 C5        -530.8701  -425.8386   519.0901 C5            1 RES     
   15157 C5        -529.3422  -426.0621   519.0562 C5            1 RES     
   15158 C5        -528.7496  -426.7246   520.3284 C5            1 RES     
   15159 C5        -529.2108  -425.9886   521.5876 C5            1 RES     
   15160 C5        -528.4204  -426.2290   522.8984 C5            1 RES     
   15161 C5        -528.5310  -427.6262   523.6224 C5            1 RES     
   15162 C5        -529.9494  -427.6843   524.2545 C5            1 RES     
   15163 C5        -530.5535  -428.7964   525.1201 C5            1 RES     
   15164 C5        -531.9825  -428.2770   525.4880 C5            1 RES     
   15165 C5        -532.8672  -429.1648   526.3616 C5            1 RES     
   15166 C5        -532.3876  -429.2515   527.8052 C5            1 RES     
   15167 C5        -527.1154  -425.4214   522.9489 C5            1 RES     
   15168 C0        -526.8915  -424.7007   524.3413 C0            1 RES     
   15169 C5        -525.3351  -424.4468   524.5406 C5            1 RES     
   15170 C5        -524.6623  -424.9898   525.8495 C5            1 RES     
   15171 C5        -524.7423  -424.0186   527.0627 C5            1 RES     
   15172 C5        -523.7540  -422.8290   527.0203 C5            1 RES     
   15173 C5        -524.0510  -421.7472   528.0773 C5            1 RES     
   15174 C5        -523.7644  -422.1514   529.5319 C5            1 RES     
   15175 C5        -522.2842  -422.4535   529.8363 C5            1 RES     
   15176 C5        -521.3553  -421.2693   529.5505 C5            1 RES     
   15177 C5        -523.2062  -425.5522   525.6181 C5            1 RES     
   15178 C5        -522.2391  -424.6882   524.7623 C5            1 RES     
   15179 C5        -520.7715  -425.1722   524.7671 C5            1 RES     
   15180 C5        -520.5439  -426.5824   524.1873 C5            1 RES     
   15181 C5        -519.0505  -426.9913   524.1611 C5            1 RES     
   15182 C5        -518.1972  -426.1545   523.1826 C5            1 RES     
   15183 C5        -516.7072  -426.5457   523.1583 C5            1 RES     
   15184 C5        -516.4466  -427.9621   522.6459 C5            1 RES     
   15185 H6        -532.3585  -425.1487   515.1309 H6            1 RES     
   15186 H6        -533.8418  -424.2937   514.5942 H6            1 RES     
   15187 H6        -533.9899  -425.7976   515.5786 H6            1 RES     
   15188 H6        -532.8133  -423.0966   516.5323 H6            1 RES     
   15189 H6        -534.4511  -423.7389   516.9084 H6            1 RES     
   15190 H6        -532.9943  -424.1149   518.8100 H6            1 RES     
   15191 H6        -533.4553  -425.6999   518.0914 H6            1 RES     
   15192 H6        -530.7912  -424.1826   517.6821 H6            1 RES     
   15193 H6        -531.1701  -425.7907   516.9485 H6            1 RES     
   15194 H6        -531.1255  -425.1789   519.9466 H6            1 RES     
   15195 H6        -531.3975  -426.8088   519.2119 H6            1 RES     
   15196 H6        -529.0641  -426.6733   518.1709 H6            1 RES     
   15197 H6        -528.8649  -425.0628   518.9424 H6            1 RES     
   15198 H6        -529.0469  -427.7924   520.4059 H6            1 RES     
   15199 H6        -527.6435  -426.6712   520.2349 H6            1 RES     
   15200 H6        -530.2820  -426.2160   521.7424 H6            1 RES     
   15201 H6        -529.1576  -424.8947   521.3846 H6            1 RES     
   15202 H6        -528.9352  -425.6332   523.5609 H6            1 RES     
   15203 H6        -528.3280  -428.4585   522.9163 H6            1 RES     
   15204 H6        -527.7996  -427.6772   524.4590 H6            1 RES     
   15205 H6        -529.9491  -426.8408   524.9702 H6            1 RES     
   15206 H6        -530.6548  -427.5433   523.4183 H6            1 RES     
   15207 H6        -529.9393  -428.9515   526.0334 H6            1 RES     
   15208 H6        -530.6238  -429.7452   524.5490 H6            1 RES     
   15209 H6        -531.9131  -427.2819   525.9878 H6            1 RES     
   15210 H6        -532.5410  -428.1280   524.5378 H6            1 RES     
   15211 H6        -532.9660  -430.1722   525.9089 H6            1 RES     
   15212 H6        -533.8774  -428.6945   526.3869 H6            1 RES     
   15213 H6        -532.3327  -428.2341   528.2524 H6            1 RES     
   15214 H6        -531.3945  -429.7375   527.8632 H6            1 RES     
   15215 H6        -533.1204  -429.8452   528.3926 H6            1 RES     
   15216 H6        -527.1090  -424.5954   522.2051 H6            1 RES     
   15217 H6        -526.3111  -426.1292   522.6536 H6            1 RES     
   15218 H6        -524.8498  -425.0725   523.7677 H6            1 RES     
   15219 H6        -525.0096  -423.4269   524.2547 H6            1 RES     
   15220 H6        -525.2560  -425.8831   526.1487 H6            1 RES     
   15221 H6        -525.7918  -423.6639   527.1329 H6            1 RES     
   15222 H6        -524.5258  -424.5872   527.9929 H6            1 RES     
   15223 H6        -522.7111  -423.1787   527.1414 H6            1 RES     
   15224 H6        -523.8105  -422.3444   526.0275 H6            1 RES     
   15225 H6        -523.4557  -420.8436   527.8344 H6            1 RES     
   15226 H6        -525.1159  -421.4444   528.0071 H6            1 RES     
   15227 H6        -524.3824  -423.0330   529.8027 H6            1 RES     
   15228 H6        -524.0823  -421.3081   530.1833 H6            1 RES     
   15229 H6        -521.9382  -423.3388   529.2641 H6            1 RES     
   15230 H6        -522.2057  -422.6993   530.9169 H6            1 RES     
   15231 H6        -521.6839  -420.3719   530.1171 H6            1 RES     
   15232 H6        -520.3206  -421.5257   529.8588 H6            1 RES     
   15233 H6        -521.3297  -421.0305   528.4672 H6            1 RES     
   15234 H6        -523.2973  -426.5193   525.0782 H6            1 RES     
   15235 H6        -522.7579  -425.7766   526.6104 H6            1 RES     
   15236 H6        -522.1990  -423.6515   525.1219 H6            1 RES     
   15237 H6        -522.6025  -424.6434   523.7135 H6            1 RES     
   15238 H6        -520.2056  -424.4365   524.1618 H6            1 RES     
   15239 H6        -520.3777  -425.1380   525.8070 H6            1 RES     
   15240 H6        -520.9540  -426.6442   523.1559 H6            1 RES     
   15241 H6        -521.0818  -427.3138   524.8241 H6            1 RES     
   15242 H6        -518.6265  -426.9220   525.1869 H6            1 RES     
   15243 H6        -519.0067  -428.0556   523.8420 H6            1 RES     
   15244 H6        -518.2317  -425.0886   523.4835 H6            1 RES     
   15245 H6        -518.6143  -426.2416   522.1556 H6            1 RES     
   15246 H6        -516.1805  -425.8407   522.4776 H6            1 RES     
   15247 H6        -516.2700  -426.4327   524.1737 H6            1 RES     
   15248 H6        -516.8918  -428.7214   523.3195 H6            1 RES     
   15249 H6        -515.3506  -428.1415   522.6074 H6            1 RES     
   15250 H6        -516.8589  -428.0845   521.6219 H6            1 RES     
   15251 C0        -538.4230  -429.3469   520.1177 C0            1 RES     
   15252 C0        -539.8517  -428.7565   519.7813 C0            1 RES     
   15253 C0        -539.7912  -427.4160   519.5997 C0            1 RES     
   15254 S1        -541.2607  -426.7112   519.1988 S1            1 RES     
   15255 C0        -542.0950  -428.1911   519.2329 C0            1 RES     
   15256 C0        -541.1987  -429.1875   519.6452 C0            1 RES     
   15257 C0        -538.4820  -426.9571   519.8818 C0            1 RES     
   15258 C0        -537.7239  -427.9848   520.1897 C0            1 RES     
   15259 C0        -536.4474  -427.5511   520.6842 C0            1 RES     
   15260 C0        -536.3571  -426.1715   520.7212 C0            1 RES     
   15261 S1        -537.8064  -425.3180   520.0765 S1            1 RES     
   15262 H2        -541.5335  -430.1824   519.7869 H2            1 RES     
   15263 H2        -535.7324  -428.1971   521.0987 H2            1 RES     
   15264 N3        -545.2594  -429.9902   518.1412 N3            1 RES     
   15265 C0        -544.0051  -429.7470   518.6147 C0            1 RES     
   15266 C0        -543.5172  -428.4256   518.7968 C0            1 RES     
   15267 C0        -544.4098  -427.3811   518.4729 C0            1 RES     
   15268 N3        -544.1249  -426.0578   518.5874 N3            1 RES     
   15269 S1        -545.5223  -425.3435   518.0746 S1            1 RES     
   15270 N3        -546.5026  -426.6130   517.6935 N3            1 RES     
   15271 C0        -545.7143  -427.6821   517.9825 C0            1 RES     
   15272 C0        -546.1212  -428.9947   517.8189 C0            1 RES     
   15273 H4        -543.3888  -430.5992   518.8132 H4            1 RES     
   15274 C5        -545.3084  -427.3927   511.8325 C5            1 RES     
   15275 C5        -544.9461  -426.8849   513.2281 C5            1 RES     
   15276 C5        -544.4016  -427.9889   514.1503 C5            1 RES     
   15277 C5        -543.0487  -428.5602   513.6876 C5            1 RES     
   15278 C5        -542.5389  -429.6257   514.6700 C5            1 RES     
   15279 C5        -541.1162  -430.0987   514.2988 C5            1 RES     
   15280 C5        -540.4976  -431.1377   515.2717 C5            1 RES     
   15281 C5        -540.5997  -430.6529   516.7189 C5            1 RES     
   15282 C5        -539.6942  -431.3323   517.7768 C5            1 RES     
   15283 C5        -539.9927  -432.8199   518.2087 C5            1 RES     
   15284 C5        -541.2814  -432.7772   519.0759 C5            1 RES     
   15285 C5        -541.9746  -433.9396   519.7965 C5            1 RES     
   15286 C5        -543.1892  -433.2805   520.5296 C5            1 RES     
   15287 C5        -544.1041  -434.1814   521.3574 C5            1 RES     
   15288 C5        -543.4464  -434.6912   522.6337 C5            1 RES     
   15289 C5        -538.2539  -430.8011   517.7392 C5            1 RES     
   15290 C0        -537.6781  -430.4825   519.1797 C0            1 RES     
   15291 C5        -536.0914  -430.5598   519.1241 C5            1 RES     
   15292 C5        -535.3644  -431.5074   520.1412 C5            1 RES     
   15293 C5        -535.0549  -430.8537   521.5189 C5            1 RES     
   15294 C5        -533.8526  -429.8800   521.5307 C5            1 RES     
   15295 C5        -533.7521  -429.0455   522.8227 C5            1 RES     
   15296 C5        -533.3468  -429.8274   524.0820 C5            1 RES     
   15297 C5        -531.9371  -430.4476   524.0287 C5            1 RES     
   15298 C5        -530.8293  -429.4109   523.8170 C5            1 RES     
   15299 C5        -534.1126  -432.2448   519.5251 C5            1 RES     
   15300 C5        -533.1205  -431.3853   518.6937 C5            1 RES     
   15301 C5        -531.8061  -432.1058   518.3182 C5            1 RES     
   15302 C5        -531.9733  -433.3554   517.4309 C5            1 RES     
   15303 C5        -530.6224  -434.0013   517.0360 C5            1 RES     
   15304 C5        -529.7641  -433.1187   516.1031 C5            1 RES     
   15305 C5        -528.4124  -433.7477   515.7142 C5            1 RES     
   15306 C5        -528.5392  -435.0249   514.8840 C5            1 RES     
   15307 H6        -544.4135  -427.7653   511.2949 H6            1 RES     
   15308 H6        -545.7424  -426.5612   511.2382 H6            1 RES     
   15309 H6        -546.0614  -428.2060   511.9057 H6            1 RES     
   15310 H6        -544.2072  -426.0580   513.1453 H6            1 RES     
   15311 H6        -545.8705  -426.4741   513.6899 H6            1 RES     
   15312 H6        -544.2631  -427.5402   515.1596 H6            1 RES     
   15313 H6        -545.1532  -428.8032   514.2355 H6            1 RES     
   15314 H6        -542.3167  -427.7228   513.6402 H6            1 RES     
   15315 H6        -543.1346  -429.0187   512.6812 H6            1 RES     
   15316 H6        -542.5180  -429.1541   515.6756 H6            1 RES     
   15317 H6        -543.2375  -430.4893   514.6907 H6            1 RES     
   15318 H6        -541.1090  -430.5211   513.2711 H6            1 RES     
   15319 H6        -540.4585  -429.2004   514.3013 H6            1 RES     
   15320 H6        -541.0014  -432.1243   515.1857 H6            1 RES     
   15321 H6        -539.4318  -431.2581   514.9805 H6            1 RES     
   15322 H6        -541.6599  -430.7192   517.0268 H6            1 RES     
   15323 H6        -540.3445  -429.5687   516.7364 H6            1 RES     
   15324 H6        -539.9662  -430.8303   518.6329 H6            1 RES     
   15325 H6        -540.0788  -433.4829   517.3224 H6            1 RES     
   15326 H6        -539.1736  -433.1954   518.8611 H6            1 RES     
   15327 H6        -540.9952  -432.1413   519.9347 H6            1 RES     
   15328 H6        -542.0560  -432.3203   518.4372 H6            1 RES     
   15329 H6        -541.2797  -434.4123   520.5240 H6            1 RES     
   15330 H6        -542.3296  -434.6982   519.0686 H6            1 RES     
   15331 H6        -542.8357  -432.4606   521.1987 H6            1 RES     
   15332 H6        -543.8370  -432.8146   519.7549 H6            1 RES     
   15333 H6        -544.4817  -435.0191   520.7368 H6            1 RES     
   15334 H6        -544.9755  -433.5611   521.6713 H6            1 RES     
   15335 H6        -543.1098  -433.8349   523.2596 H6            1 RES     
   15336 H6        -542.5827  -435.3431   522.4000 H6            1 RES     
   15337 H6        -544.1941  -435.2696   523.2175 H6            1 RES     
   15338 H6        -538.1811  -429.8364   517.1919 H6            1 RES     
   15339 H6        -537.6721  -431.5482   517.1573 H6            1 RES     
   15340 H6        -535.8707  -431.0591   518.1616 H6            1 RES     
   15341 H6        -535.6013  -429.5745   518.9948 H6            1 RES     
   15342 H6        -536.0844  -432.3281   520.3605 H6            1 RES     
   15343 H6        -535.9822  -430.3477   521.8599 H6            1 RES     
   15344 H6        -534.8300  -431.6558   522.2547 H6            1 RES     
   15345 H6        -532.9024  -430.4256   521.3757 H6            1 RES     
   15346 H6        -533.9502  -429.1713   520.6870 H6            1 RES     
   15347 H6        -533.0200  -428.2287   522.6591 H6            1 RES     
   15348 H6        -534.7261  -428.5530   523.0212 H6            1 RES     
   15349 H6        -534.0921  -430.6258   524.2811 H6            1 RES     
   15350 H6        -533.3774  -429.1207   524.9400 H6            1 RES     
   15351 H6        -531.8767  -431.2180   523.2328 H6            1 RES     
   15352 H6        -531.7542  -430.9529   525.0010 H6            1 RES     
   15353 H6        -530.8711  -428.6304   524.6067 H6            1 RES     
   15354 H6        -529.8393  -429.9103   523.8623 H6            1 RES     
   15355 H6        -530.9135  -428.9299   522.8207 H6            1 RES     
   15356 H6        -534.4870  -433.0246   518.8273 H6            1 RES     
   15357 H6        -533.5811  -432.7734   520.3461 H6            1 RES     
   15358 H6        -532.8071  -430.4872   519.2423 H6            1 RES     
   15359 H6        -533.6167  -431.0297   517.7657 H6            1 RES     
   15360 H6        -531.1918  -431.3582   517.7782 H6            1 RES     
   15361 H6        -531.2649  -432.3891   519.2480 H6            1 RES     
   15362 H6        -532.5348  -433.0976   516.5068 H6            1 RES     
   15363 H6        -532.5549  -434.1113   517.9966 H6            1 RES     
   15364 H6        -530.0466  -434.2530   517.9535 H6            1 RES     
   15365 H6        -530.8546  -434.9501   516.5046 H6            1 RES     
   15366 H6        -529.5252  -432.1658   516.6155 H6            1 RES     
   15367 H6        -530.3372  -432.8850   515.1793 H6            1 RES     
   15368 H6        -527.8536  -433.0046   515.1032 H6            1 RES     
   15369 H6        -527.8161  -433.9575   516.6282 H6            1 RES     
   15370 H6        -529.0318  -435.8325   515.4615 H6            1 RES     
   15371 H6        -527.5248  -435.3791   514.6002 H6            1 RES     
   15372 H6        -529.1147  -434.8264   513.9551 H6            1 RES     
   15373 C0        -550.4304  -431.8992   516.3919 C0            1 RES     
   15374 C0        -551.7336  -431.0050   516.4632 C0            1 RES     
   15375 C0        -551.4155  -429.6917   516.5500 C0            1 RES     
   15376 S1        -552.7431  -428.6657   516.5906 S1            1 RES     
   15377 C0        -553.8600  -429.9417   516.4822 C0            1 RES     
   15378 C0        -553.1465  -431.1487   516.5032 C0            1 RES     
   15379 C0        -550.0115  -429.5495   516.6630 C0            1 RES     
   15380 C0        -549.4536  -430.7374   516.6040 C0            1 RES     
   15381 C0        -548.0551  -430.6639   516.9222 C0            1 RES     
   15382 C0        -547.6677  -429.3704   517.2211 C0            1 RES     
   15383 S1        -548.9801  -428.1479   517.0540 S1            1 RES     
   15384 H2        -553.6615  -432.0743   516.5011 H2            1 RES     
   15385 H2        -547.4415  -431.5048   517.0514 H2            1 RES     
   15386 N3        -557.4615  -430.8473   515.6751 N3            1 RES     
   15387 C0        -556.1283  -430.9470   515.9385 C0            1 RES     
   15388 C0        -555.3479  -429.8132   516.2887 C0            1 RES     
   15389 C0        -556.0345  -428.5819   516.3616 C0            1 RES     
   15390 N3        -555.4597  -427.3947   516.6862 N3            1 RES     
   15391 S1        -556.7322  -426.3457   516.6074 S1            1 RES     
   15392 N3        -558.0064  -427.2964   516.1712 N3            1 RES     
   15393 C0        -557.4310  -428.5246   516.0798 C0            1 RES     
   15394 C0        -558.1286  -429.6687   515.7336 C0            1 RES     
   15395 H4        -555.6860  -431.9164   515.8374 H4            1 RES     
   15396 C5        -557.8855  -426.8582   510.1564 C5            1 RES     
   15397 C5        -557.2210  -426.7680   511.5300 C5            1 RES     
   15398 C5        -556.7949  -428.1373   512.0863 C5            1 RES     
   15399 C5        -555.6789  -428.8101   511.2661 C5            1 RES     
   15400 C5        -555.2692  -430.1508   511.8947 C5            1 RES     
   15401 C5        -554.0513  -430.7637   511.1690 C5            1 RES     
   15402 C5        -553.5322  -432.0958   511.7729 C5            1 RES     
   15403 C5        -553.3134  -431.9585   513.2806 C5            1 RES     
   15404 C5        -552.4280  -433.0176   513.9842 C5            1 RES     
   15405 C5        -552.9703  -434.4892   514.1534 C5            1 RES     
   15406 C5        -554.0776  -434.4288   515.2419 C5            1 RES     
   15407 C5        -554.8889  -435.5892   515.8302 C5            1 RES     
   15408 C5        -555.8128  -434.9209   516.9013 C5            1 RES     
   15409 C5        -556.7665  -435.8181   517.6883 C5            1 RES     
   15410 C5        -556.0518  -436.7235   518.6836 C5            1 RES     
   15411 C5        -550.9292  -432.7533   513.7799 C5            1 RES     
   15412 C0        -550.0923  -432.8919   515.1172 C0            1 RES     
   15413 C5        -548.5848  -433.2304   514.7436 C5            1 RES     
   15414 C5        -547.9351  -434.5047   515.3878 C5            1 RES     
   15415 C5        -547.2930  -434.2615   516.7842 C5            1 RES     
   15416 C5        -545.9221  -433.5446   516.7629 C5            1 RES     
   15417 C5        -545.4559  -433.0717   518.1539 C5            1 RES     
   15418 C5        -545.0457  -434.1890   519.1260 C5            1 RES     
   15419 C5        -543.8248  -435.0157   518.6782 C5            1 RES     
   15420 C5        -542.5646  -434.1689   518.4734 C5            1 RES     
   15421 C5        -546.9748  -435.2820   514.4060 C5            1 RES     
   15422 C5        -545.9559  -434.4371   513.5924 C5            1 RES     
   15423 C5        -544.8960  -435.2665   512.8330 C5            1 RES     
   15424 C5        -545.4555  -436.2203   511.7588 C5            1 RES     
   15425 C5        -544.3474  -436.9802   510.9890 C5            1 RES     
   15426 C5        -543.4678  -436.0656   510.1083 C5            1 RES     
   15427 C5        -542.3543  -436.8109   509.3476 C5            1 RES     
   15428 C5        -542.8723  -437.8118   508.3148 C5            1 RES     
   15429 H6        -557.1804  -427.2433   509.3926 H6            1 RES     
   15430 H6        -558.2148  -425.8466   509.8383 H6            1 RES     
   15431 H6        -558.7757  -427.5209   510.2056 H6            1 RES     
   15432 H6        -556.3430  -426.0876   511.4771 H6            1 RES     
   15433 H6        -557.9577  -426.3233   512.2344 H6            1 RES     
   15434 H6        -556.4162  -427.9726   513.1200 H6            1 RES     
   15435 H6        -557.6821  -428.8039   512.1466 H6            1 RES     
   15436 H6        -554.8001  -428.1269   511.2506 H6            1 RES     
   15437 H6        -556.0085  -428.9940   510.2232 H6            1 RES     
   15438 H6        -554.9997  -429.9427   512.9521 H6            1 RES     
   15439 H6        -556.1253  -430.8585   511.8728 H6            1 RES     
   15440 H6        -554.2864  -430.9244   510.0949 H6            1 RES     
   15441 H6        -553.2238  -430.0212   511.2281 H6            1 RES     
   15442 H6        -554.2423  -432.9299   511.5862 H6            1 RES     
   15443 H6        -552.5718  -432.3283   511.2643 H6            1 RES     
   15444 H6        -554.3059  -431.9094   513.7661 H6            1 RES     
   15445 H6        -552.8328  -430.9715   513.4691 H6            1 RES     
   15446 H6        -552.4569  -432.6936   514.9605 H6            1 RES     
   15447 H6        -553.3261  -434.8971   513.1840 H6            1 RES     
   15448 H6        -552.1633  -435.1464   514.5462 H6            1 RES     
   15449 H6        -553.5385  -434.0753   516.1409 H6            1 RES     
   15450 H6        -554.8223  -433.7049   514.8703 H6            1 RES     
   15451 H6        -554.2115  -436.3353   516.2991 H6            1 RES     
   15452 H6        -555.5014  -436.0789   515.0451 H6            1 RES     
   15453 H6        -555.1973  -434.3583   517.6427 H6            1 RES     
   15454 H6        -556.4532  -434.1783   516.3766 H6            1 RES     
   15455 H6        -557.4018  -436.4049   516.9943 H6            1 RES     
   15456 H6        -557.4290  -435.1474   518.2830 H6            1 RES     
   15457 H6        -555.4513  -436.1130   519.3943 H6            1 RES     
   15458 H6        -555.3916  -437.4422   518.1608 H6            1 RES     
   15459 H6        -556.8112  -437.2839   519.2699 H6            1 RES     
   15460 H6        -550.7336  -431.7143   513.4368 H6            1 RES     
   15461 H6        -550.6130  -433.4307   512.9575 H6            1 RES     
   15462 H6        -548.6205  -433.5174   513.6756 H6            1 RES     
   15463 H6        -547.9201  -432.3440   514.7260 H6            1 RES     
   15464 H6        -548.7733  -435.2148   515.5694 H6            1 RES     
   15465 H6        -548.0299  -433.6967   517.3924 H6            1 RES     
   15466 H6        -547.1385  -435.2421   517.2841 H6            1 RES     
   15467 H6        -545.1440  -434.1954   516.3207 H6            1 RES     
   15468 H6        -545.9896  -432.6499   516.1159 H6            1 RES     
   15469 H6        -544.5986  -432.3807   518.0226 H6            1 RES     
   15470 H6        -546.2619  -432.4778   518.6316 H6            1 RES     
   15471 H6        -545.9066  -434.8686   519.2977 H6            1 RES     
   15472 H6        -544.7974  -433.7122   520.0995 H6            1 RES     
   15473 H6        -544.0486  -435.5733   517.7456 H6            1 RES     
   15474 H6        -543.6125  -435.7615   519.4737 H6            1 RES     
   15475 H6        -542.3216  -433.6035   519.3984 H6            1 RES     
   15476 H6        -541.7087  -434.8301   518.2252 H6            1 RES     
   15477 H6        -542.6903  -433.4579   517.6309 H6            1 RES     
   15478 H6        -547.6061  -435.7958   513.6492 H6            1 RES     
   15479 H6        -546.4532  -436.0752   514.9847 H6            1 RES     
   15480 H6        -545.3803  -433.7642   514.2417 H6            1 RES     
   15481 H6        -546.4962  -433.7900   512.8690 H6            1 RES     
   15482 H6        -544.2228  -434.5315   512.3488 H6            1 RES     
   15483 H6        -544.2966  -435.8528   513.5641 H6            1 RES     
   15484 H6        -546.0792  -435.6561   511.0318 H6            1 RES     
   15485 H6        -546.0952  -436.9751   512.2597 H6            1 RES     
   15486 H6        -543.7096  -437.5395   511.7081 H6            1 RES     
   15487 H6        -544.8529  -437.7199   510.3302 H6            1 RES     
   15488 H6        -542.9577  -435.3187   510.7483 H6            1 RES     
   15489 H6        -544.1077  -435.5226   509.3789 H6            1 RES     
   15490 H6        -541.7462  -436.0536   508.8049 H6            1 RES     
   15491 H6        -541.6884  -437.3329   510.0679 H6            1 RES     
   15492 H6        -543.4353  -438.6344   508.7995 H6            1 RES     
   15493 H6        -542.0103  -438.2605   507.7757 H6            1 RES     
   15494 H6        -543.5228  -437.3007   507.5738 H6            1 RES     
   15495 C0        -563.1213  -431.3502   514.5993 C0            1 RES     
   15496 C0        -564.1782  -430.2846   515.0999 C0            1 RES     
   15497 C0        -563.5775  -429.1061   515.3895 C0            1 RES     
   15498 S1        -564.6343  -427.9030   515.8920 S1            1 RES     
   15499 C0        -566.0015  -428.9008   515.7426 C0            1 RES     
   15500 C0        -565.5673  -430.1840   515.3802 C0            1 RES     
   15501 C0        -562.1746  -429.2430   515.2575 C0            1 RES     
   15502 C0        -561.8984  -430.4616   514.8521 C0            1 RES     
   15503 C0        -560.4853  -430.7119   514.9041 C0            1 RES     
   15504 C0        -559.7905  -429.6148   515.3801 C0            1 RES     
   15505 S1        -560.8214  -428.1773   515.7202 S1            1 RES     
   15506 H2        -566.2628  -430.9776   515.2886 H2            1 RES     
   15507 H2        -560.0534  -431.6534   514.7393 H2            1 RES     
   15508 N3        -569.7921  -428.9437   515.4745 N3            1 RES     
   15509 C0        -568.4871  -429.3350   515.4513 C0            1 RES     
   15510 C0        -567.4394  -428.4715   515.8685 C0            1 RES     
   15511 C0        -567.8286  -427.1922   516.3208 C0            1 RES     
   15512 N3        -566.9719  -426.2356   516.7638 N3            1 RES     
   15513 S1        -567.9882  -424.9917   517.1458 S1            1 RES     
   15514 N3        -569.4862  -425.5734   516.7781 N3            1 RES     
   15515 C0        -569.2065  -426.8259   516.3299 C0            1 RES     
   15516 C0        -570.1757  -427.7147   515.8986 C0            1 RES     
   15517 H4        -568.2820  -430.3146   515.0720 H4            1 RES     
   15518 C5        -570.1642  -423.7471   511.0693 C5            1 RES     
   15519 C5        -569.3003  -424.1035   512.2790 C5            1 RES     
   15520 C5        -569.0993  -425.6186   512.4526 C5            1 RES     
   15521 C5        -568.2865  -426.2620   511.3141 C5            1 RES     
   15522 C5        -568.0846  -427.7640   511.5660 C5            1 RES     
   15523 C5        -567.1466  -428.3905   510.5109 C5            1 RES     
   15524 C5        -566.8409  -429.8976   510.7199 C5            1 RES     
   15525 C5        -566.3776  -430.1629   512.1534 C5            1 RES     
   15526 C5        -565.6449  -431.4971   512.4435 C5            1 RES     
   15527 C5        -566.4581  -432.8484   512.4105 C5            1 RES     
   15528 C5        -567.3537  -432.8553   513.6803 C5            1 RES     
   15529 C5        -568.2983  -433.9617   514.1646 C5            1 RES     
   15530 C5        -568.8894  -433.4159   515.5062 C5            1 RES     
   15531 C5        -569.8859  -434.2930   516.2622 C5            1 RES     
   15532 C5        -569.2422  -435.5198   516.8964 C5            1 RES     
   15533 C5        -564.1713  -431.4585   512.0135 C5            1 RES     
   15534 C0        -563.1952  -432.0551   513.1087 C0            1 RES     
   15535 C5        -561.8670  -432.5538   512.3918 C5            1 RES     
   15536 C5        -561.4168  -434.0381   512.6262 C5            1 RES     
   15537 C5        -560.5385  -434.2499   513.8931 C5            1 RES     
   15538 C5        -559.0646  -433.7999   513.7556 C5            1 RES     
   15539 C5        -558.3079  -433.7601   515.0978 C5            1 RES     
   15540 C5        -558.0069  -435.1304   515.7250 C5            1 RES     
   15541 C5        -557.0707  -436.0277   514.8925 C5            1 RES     
   15542 C5        -555.7032  -435.3906   514.6264 C5            1 RES     
   15543 C5        -560.8006  -434.7157   511.3411 C5            1 RES     
   15544 C5        -559.7563  -433.8936   510.5364 C5            1 RES     
   15545 C5        -559.0222  -434.6912   509.4352 C5            1 RES     
   15546 C5        -559.9250  -435.2495   508.3171 C5            1 RES     
   15547 C5        -559.1310  -435.9867   507.2107 C5            1 RES     
   15548 C5        -558.2162  -435.0576   506.3825 C5            1 RES     
   15549 C5        -557.4126  -435.7839   505.2869 C5            1 RES     
   15550 C5        -558.2792  -436.4043   504.1910 C5            1 RES     
   15551 H6        -569.6784  -424.0570   510.1224 H6            1 RES     
   15552 H6        -570.3129  -422.6473   511.0330 H6            1 RES     
   15553 H6        -571.1582  -424.2360   511.1525 H6            1 RES     
   15554 H6        -568.3149  -423.5946   512.1982 H6            1 RES     
   15555 H6        -569.8127  -423.7170   513.1871 H6            1 RES     
   15556 H6        -568.5458  -425.7731   513.4059 H6            1 RES     
   15557 H6        -570.0897  -426.1145   512.5450 H6            1 RES     
   15558 H6        -567.2943  -425.7595   511.2696 H6            1 RES     
   15559 H6        -568.7982  -426.1323   510.3385 H6            1 RES     
   15560 H6        -567.6237  -427.8636   512.5718 H6            1 RES     
   15561 H6        -569.0658  -428.2851   511.5653 H6            1 RES     
   15562 H6        -567.5666  -428.2478   509.4921 H6            1 RES     
   15563 H6        -566.1802  -427.8400   510.5600 H6            1 RES     
   15564 H6        -567.7324  -430.5259   510.5072 H6            1 RES     
   15565 H6        -566.0383  -430.1672   510.0000 H6            1 RES     
   15566 H6        -567.2538  -430.0576   512.8200 H6            1 RES     
   15567 H6        -565.6747  -429.3488   512.4431 H6            1 RES     
   15568 H6        -565.4594  -431.4144   513.4523 H6            1 RES     
   15569 H6        -567.0320  -432.9455   511.4650 H6            1 RES     
   15570 H6        -565.7613  -433.7109   512.4989 H6            1 RES     
   15571 H6        -566.6248  -432.8256   514.5119 H6            1 RES     
   15572 H6        -567.9730  -431.9450   513.6138 H6            1 RES     
   15573 H6        -567.7343  -434.9046   514.3329 H6            1 RES     
   15574 H6        -569.1104  -434.1359   513.4287 H6            1 RES     
   15575 H6        -568.0653  -433.1622   516.2145 H6            1 RES     
   15576 H6        -569.4266  -432.4695   515.2765 H6            1 RES     
   15577 H6        -570.7273  -434.5776   515.5984 H6            1 RES     
   15578 H6        -570.2945  -433.6775   517.0969 H6            1 RES     
   15579 H6        -568.4269  -435.2104   517.5877 H6            1 RES     
   15580 H6        -568.8354  -436.1978   516.1215 H6            1 RES     
   15581 H6        -570.0087  -436.0615   517.4909 H6            1 RES     
   15582 H6        -563.8110  -430.4185   511.8581 H6            1 RES     
   15583 H6        -564.1321  -431.9657   511.0254 H6            1 RES     
   15584 H6        -562.1206  -432.5680   511.3148 H6            1 RES     
   15585 H6        -561.0383  -431.8191   512.4277 H6            1 RES     
   15586 H6        -562.3511  -434.6129   512.8169 H6            1 RES     
   15587 H6        -561.0396  -433.7257   514.7335 H6            1 RES     
   15588 H6        -560.5250  -435.3326   514.1439 H6            1 RES     
   15589 H6        -558.5176  -434.4529   513.0493 H6            1 RES     
   15590 H6        -559.0341  -432.7796   513.3294 H6            1 RES     
   15591 H6        -557.3517  -433.2188   514.9479 H6            1 RES     
   15592 H6        -558.8887  -433.1651   515.8320 H6            1 RES     
   15593 H6        -558.9581  -435.6698   515.9167 H6            1 RES     
   15594 H6        -557.5215  -434.9496   516.7091 H6            1 RES     
   15595 H6        -557.5438  -436.2998   513.9266 H6            1 RES     
   15596 H6        -556.9077  -436.9664   515.4638 H6            1 RES     
   15597 H6        -555.2110  -435.1127   515.5830 H6            1 RES     
   15598 H6        -555.0546  -436.1133   514.0894 H6            1 RES     
   15599 H6        -555.7971  -434.4891   513.9864 H6            1 RES     
   15600 H6        -561.6318  -434.9163   510.6311 H6            1 RES     
   15601 H6        -560.3809  -435.7024   511.6352 H6            1 RES     
   15602 H6        -558.9607  -433.5057   511.1864 H6            1 RES     
   15603 H6        -560.2465  -433.0089   510.0773 H6            1 RES     
   15604 H6        -558.2865  -433.9918   508.9907 H6            1 RES     
   15605 H6        -558.4606  -435.5301   509.9028 H6            1 RES     
   15606 H6        -560.5140  -434.4285   507.8536 H6            1 RES     
   15607 H6        -560.6300  -435.9776   508.7671 H6            1 RES     
   15608 H6        -558.5284  -436.8036   507.6650 H6            1 RES     
   15609 H6        -559.8745  -436.4484   506.5247 H6            1 RES     
   15610 H6        -557.4695  -434.5853   507.0512 H6            1 RES     
   15611 H6        -558.8258  -434.2534   505.9156 H6            1 RES     
   15612 H6        -556.7436  -435.0379   504.8033 H6            1 RES     
   15613 H6        -556.7746  -436.5704   505.7444 H6            1 RES     
   15614 H6        -558.9271  -437.2067   504.5969 H6            1 RES     
   15615 H6        -557.6223  -436.8558   503.4167 H6            1 RES     
   15616 H6        -558.9076  -435.6260   503.7084 H6            1 RES     
   15617 C0        -575.5240  -428.1776   515.4253 C0            1 RES     
   15618 C0        -576.2429  -427.0933   516.3255 C0            1 RES     
   15619 C0        -575.3682  -426.1413   516.7282 C0            1 RES     
   15620 S1        -576.0574  -424.9260   517.6584 S1            1 RES     
   15621 C0        -577.6130  -425.6045   517.5742 C0            1 RES     
   15622 C0        -577.5215  -426.8205   516.8817 C0            1 RES     
   15623 C0        -574.0623  -426.4863   516.3045 C0            1 RES     
   15624 C0        -574.1158  -427.6027   515.6142 C0            1 RES     
   15625 C0        -572.7970  -428.1017   515.3420 C0            1 RES     
   15626 C0        -571.8214  -427.2882   515.8890 C0            1 RES     
   15627 S1        -572.4594  -425.8150   516.7059 S1            1 RES     
   15628 H2        -578.3762  -427.4352   516.7657 H2            1 RES     
   15629 H2        -572.6055  -429.0378   514.9093 H2            1 RES     
   15630 N3        -581.3223  -424.9180   518.0354 N3            1 RES     
   15631 C0        -580.1491  -425.5149   517.6830 C0            1 RES     
   15632 C0        -578.8912  -424.9725   518.0583 C0            1 RES     
   15633 C0        -578.9268  -423.7894   518.8276 C0            1 RES     
   15634 N3        -577.8296  -423.1306   519.2832 N3            1 RES     
   15635 S1        -578.4888  -421.8550   520.0982 S1            1 RES     
   15636 N3        -580.1141  -422.0611   519.9142 N3            1 RES     
   15637 C0        -580.1778  -423.2003   519.1753 C0            1 RES     
   15638 C0        -581.3674  -423.7773   518.7663 C0            1 RES     
   15639 H4        -580.2164  -426.3967   517.0802 H4            1 RES     
   15640 C5        -581.2217  -418.8413   514.9352 C5            1 RES     
   15641 C5        -580.2850  -419.6205   515.8582 C5            1 RES     
   15642 C5        -580.3890  -421.1445   515.6780 C5            1 RES     
   15643 C5        -579.9097  -421.6311   514.2980 C5            1 RES     
   15644 C5        -579.9985  -423.1614   514.1954 C5            1 RES     
   15645 C5        -579.3825  -423.6737   512.8748 C5            1 RES     
   15646 C5        -579.3785  -425.2168   512.7102 C5            1 RES     
   15647 C5        -578.7760  -425.8920   513.9435 C5            1 RES     
   15648 C5        -578.3107  -427.3639   513.8099 C5            1 RES     
   15649 C5        -579.3897  -428.5048   513.6592 C5            1 RES     
   15650 C5        -580.0685  -428.6562   515.0488 C5            1 RES     
   15651 C5        -581.1455  -429.6630   515.4698 C5            1 RES     
   15652 C5        -581.4015  -429.3567   516.9824 C5            1 RES     
   15653 C5        -582.4396  -430.1998   517.7209 C5            1 RES     
   15654 C5        -581.9864  -431.6353   517.9566 C5            1 RES     
   15655 C5        -576.9430  -427.4829   513.1221 C5            1 RES     
   15656 C0        -575.9662  -428.4841   513.8649 C0            1 RES     
   15657 C5        -574.8960  -429.0228   512.8203 C5            1 RES     
   15658 C5        -574.7438  -430.5755   512.6568 C5            1 RES     
   15659 C5        -573.7538  -431.2326   513.6615 C5            1 RES     
   15660 C5        -572.2546  -431.0281   513.3383 C5            1 RES     
   15661 C5        -571.3172  -431.4415   514.4898 C5            1 RES     
   15662 C5        -571.2267  -432.9524   514.7553 C5            1 RES     
   15663 C5        -570.6374  -433.7759   513.5937 C5            1 RES     
   15664 C5        -569.2199  -433.3434   513.2056 C5            1 RES     
   15665 C5        -574.4834  -431.0256   511.1669 C5            1 RES     
   15666 C5        -573.4181  -430.2318   510.3612 C5            1 RES     
   15667 C5        -573.0423  -430.8609   509.0007 C5            1 RES     
   15668 C5        -574.1985  -430.9705   507.9869 C5            1 RES     
   15669 C5        -573.7528  -431.5511   506.6223 C5            1 RES     
   15670 C5        -572.7931  -430.6269   505.8407 C5            1 RES     
   15671 C5        -572.3342  -431.2013   504.4868 C5            1 RES     
   15672 C5        -573.4655  -431.3819   503.4747 C5            1 RES     
   15673 H6        -580.9586  -418.9975   513.8697 H6            1 RES     
   15674 H6        -581.1356  -417.7558   515.1527 H6            1 RES     
   15675 H6        -582.2737  -419.1541   515.1062 H6            1 RES     
   15676 H6        -579.2366  -419.2876   515.6951 H6            1 RES     
   15677 H6        -580.5630  -419.3772   516.9071 H6            1 RES     
   15678 H6        -579.7466  -421.6155   516.4555 H6            1 RES     
   15679 H6        -581.4376  -421.4669   515.8558 H6            1 RES     
   15680 H6        -578.8507  -421.3142   514.1671 H6            1 RES     
   15681 H6        -580.5202  -421.1859   513.4860 H6            1 RES     
   15682 H6        -579.4262  -423.5763   515.0524 H6            1 RES     
   15683 H6        -581.0575  -423.4874   514.2769 H6            1 RES     
   15684 H6        -579.9080  -423.2217   512.0064 H6            1 RES     
   15685 H6        -578.3243  -423.3285   512.8486 H6            1 RES     
   15686 H6        -580.4050  -425.6105   512.5492 H6            1 RES     
   15687 H6        -578.7673  -425.4439   511.8101 H6            1 RES     
   15688 H6        -579.5012  -425.7962   514.7731 H6            1 RES     
   15689 H6        -577.8804  -425.3060   514.2525 H6            1 RES     
   15690 H6        -577.9649  -427.5570   514.7596 H6            1 RES     
   15691 H6        -580.1043  -428.2725   512.8419 H6            1 RES     
   15692 H6        -578.8880  -429.4720   513.4349 H6            1 RES     
   15693 H6        -579.2354  -428.9530   515.7134 H6            1 RES     
   15694 H6        -580.4818  -427.6622   515.2891 H6            1 RES     
   15695 H6        -580.7775  -430.7026   515.3313 H6            1 RES     
   15696 H6        -582.0756  -429.5124   514.8837 H6            1 RES     
   15697 H6        -580.4469  -429.4269   517.5559 H6            1 RES     
   15698 H6        -581.7520  -428.3038   517.0576 H6            1 RES     
   15699 H6        -583.4110  -430.1667   517.1872 H6            1 RES     
   15700 H6        -582.5793  -429.7384   518.7259 H6            1 RES     
   15701 H6        -581.0309  -431.6466   518.5268 H6            1 RES     
   15702 H6        -581.8530  -432.1703   516.9965 H6            1 RES     
   15703 H6        -582.7546  -432.1599   518.5641 H6            1 RES     
   15704 H6        -576.3958  -426.5154   513.1155 H6            1 RES     
   15705 H6        -577.1595  -427.7397   512.0627 H6            1 RES     
   15706 H6        -575.3029  -428.7362   511.8320 H6            1 RES     
   15707 H6        -573.9334  -428.4745   512.8452 H6            1 RES     
   15708 H6        -575.7407  -431.0064   512.9022 H6            1 RES     
   15709 H6        -574.0016  -430.8436   514.6712 H6            1 RES     
   15710 H6        -573.9351  -432.3291   513.6794 H6            1 RES     
   15711 H6        -571.9703  -431.5801   512.4223 H6            1 RES     
   15712 H6        -572.0701  -429.9573   513.1309 H6            1 RES     
   15713 H6        -570.3003  -431.0561   514.2726 H6            1 RES     
   15714 H6        -571.6425  -430.9456   515.4273 H6            1 RES     
   15715 H6        -572.2322  -433.3467   515.0121 H6            1 RES     
   15716 H6        -570.5740  -433.0984   515.6437 H6            1 RES     
   15717 H6        -571.2950  -433.7236   512.7018 H6            1 RES     
   15718 H6        -570.5961  -434.8371   513.9199 H6            1 RES     
   15719 H6        -568.5440  -433.3913   514.0860 H6            1 RES     
   15720 H6        -568.8274  -434.0200   512.4184 H6            1 RES     
   15721 H6        -569.2125  -432.3136   512.7926 H6            1 RES     
   15722 H6        -575.4337  -430.9031   510.6039 H6            1 RES     
   15723 H6        -574.2456  -432.1117   511.1679 H6            1 RES     
   15724 H6        -572.4709  -430.1548   510.9115 H6            1 RES     
   15725 H6        -573.7703  -429.1915   510.1946 H6            1 RES     
   15726 H6        -572.2480  -430.2158   508.5752 H6            1 RES     
   15727 H6        -572.6102  -431.8718   509.1712 H6            1 RES     
   15728 H6        -574.6603  -429.9729   507.8221 H6            1 RES     
   15729 H6        -574.9685  -431.6497   508.4061 H6            1 RES     
   15730 H6        -573.2783  -432.5450   506.7765 H6            1 RES     
   15731 H6        -574.6707  -431.6991   506.0124 H6            1 RES     
   15732 H6        -571.8724  -430.4652   506.4355 H6            1 RES     
   15733 H6        -573.2789  -429.6409   505.6731 H6            1 RES     
   15734 H6        -571.6002  -430.4908   504.0460 H6            1 RES     
   15735 H6        -571.8186  -432.1732   504.6436 H6            1 RES     
   15736 H6        -574.2026  -432.1316   503.8254 H6            1 RES     
   15737 H6        -573.0420  -431.7444   502.5133 H6            1 RES     
   15738 H6        -573.9773  -430.4136   503.2904 H6            1 RES     
   15739 C0        -586.7009  -423.1707   519.2440 C0            1 RES     
   15740 C0        -587.0304  -422.2227   520.4669 C0            1 RES     
   15741 C0        -585.9228  -421.5618   520.8795 C0            1 RES     
   15742 S1        -586.1913  -420.5010   522.1520 S1            1 RES     
   15743 C0        -587.8509  -420.8569   522.2316 C0            1 RES     
   15744 C0        -588.1246  -421.8702   521.3018 C0            1 RES     
   15745 C0        -584.7981  -422.0196   520.1518 C0            1 RES     
   15746 C0        -585.1903  -422.9129   519.2721 C0            1 RES     
   15747 C0        -584.0636  -423.5559   518.6562 C0            1 RES     
   15748 C0        -582.8668  -423.0794   519.1597 C0            1 RES     
   15749 S1        -583.0474  -421.7541   520.3663 S1            1 RES     
   15750 H2        -589.0985  -422.2804   521.2292 H2            1 RES     
   15751 H2        -584.1426  -424.3810   518.0134 H2            1 RES     
   15752 N3        -591.2180  -419.6610   523.5259 N3            1 RES     
   15753 C0        -590.2647  -420.3531   522.8410 C0            1 RES     
   15754 C0        -588.8787  -420.1442   523.0704 C0            1 RES     
   15755 C0        -588.5466  -419.1903   524.0566 C0            1 RES     
   15756 N3        -587.2790  -418.8612   524.4175 N3            1 RES     
   15757 S1        -587.5226  -417.7206   525.5861 S1            1 RES     
   15758 N3        -589.1632  -417.5892   525.6793 N3            1 RES     
   15759 C0        -589.5774  -418.4910   524.7503 C0            1 RES     
   15760 C0        -590.9099  -418.7368   524.4685 C0            1 RES     
   15761 H4        -590.6072  -421.0406   522.0957 H4            1 RES     
   15762 C5        -590.2802  -413.1360   521.7670 C5            1 RES     
   15763 C5        -589.4058  -414.2638   522.3148 C5            1 RES     
   15764 C5        -589.8586  -415.6589   521.8515 C5            1 RES     
   15765 C5        -589.7036  -415.8800   520.3356 C5            1 RES     
   15766 C5        -590.1315  -417.3023   519.9427 C5            1 RES     
   15767 C5        -589.8411  -417.5858   518.4524 C5            1 RES     
   15768 C5        -590.1913  -419.0219   517.9795 C5            1 RES     
   15769 C5        -589.5716  -420.0654   518.9105 C5            1 RES     
   15770 C5        -589.4567  -421.5215   518.3934 C5            1 RES     
   15771 C5        -590.7646  -422.3868   518.2236 C5            1 RES     
   15772 C5        -591.2472  -422.7428   519.6571 C5            1 RES     
   15773 C5        -592.4402  -423.6161   520.0631 C5            1 RES     
   15774 C5        -592.3986  -423.6380   521.6267 C5            1 RES     
   15775 C5        -593.4721  -424.4372   522.3633 C5            1 RES     
   15776 C5        -593.3065  -425.9441   522.2105 C5            1 RES     
   15777 C5        -588.2629  -421.7113   517.4464 C5            1 RES     
   15778 C0        -587.4238  -423.0154   517.7683 C0            1 RES     
   15779 C5        -586.6598  -423.4694   516.4504 C5            1 RES     
   15780 C5        -586.8688  -424.9407   515.9482 C5            1 RES     
   15781 C5        -585.9048  -425.9807   516.5891 C5            1 RES     
   15782 C5        -584.4612  -425.9709   516.0327 C5            1 RES     
   15783 C5        -583.4741  -426.8036   516.8743 C5            1 RES     
   15784 C5        -583.6705  -428.3261   516.8043 C5            1 RES     
   15785 C5        -583.4489  -428.9402   515.4084 C5            1 RES     
   15786 C5        -582.0450  -428.6830   514.8517 C5            1 RES     
   15787 C5        -586.9336  -425.0625   514.3762 C5            1 RES     
   15788 C5        -585.8542  -424.2992   513.5599 C5            1 RES     
   15789 C5        -585.8267  -424.6428   512.0535 C5            1 RES     
   15790 C5        -587.1164  -424.3043   511.2797 C5            1 RES     
   15791 C5        -587.0116  -424.6129   509.7659 C5            1 RES     
   15792 C5        -586.0028  -423.7123   509.0195 C5            1 RES     
   15793 C5        -585.8824  -424.0198   507.5146 C5            1 RES     
   15794 C5        -587.1629  -423.7539   506.7232 C5            1 RES     
   15795 H6        -590.2169  -413.0783   520.6618 H6            1 RES     
   15796 H6        -589.9330  -412.1657   522.1802 H6            1 RES     
   15797 H6        -591.3377  -413.2914   522.0694 H6            1 RES     
   15798 H6        -588.3463  -414.0907   522.0248 H6            1 RES     
   15799 H6        -589.4674  -414.2319   523.4247 H6            1 RES     
   15800 H6        -589.2241  -416.4062   522.3789 H6            1 RES     
   15801 H6        -590.9138  -415.8256   522.1579 H6            1 RES     
   15802 H6        -588.6325  -415.7315   520.0713 H6            1 RES     
   15803 H6        -590.3179  -415.1548   519.7638 H6            1 RES     
   15804 H6        -589.5409  -418.0024   520.5712 H6            1 RES     
   15805 H6        -591.2117  -417.4476   520.1578 H6            1 RES     
   15806 H6        -590.3803  -416.8557   517.8115 H6            1 RES     
   15807 H6        -588.7494  -417.4351   518.2944 H6            1 RES     
   15808 H6        -591.2905  -419.1800   517.9417 H6            1 RES     
   15809 H6        -589.7826  -419.1320   516.9518 H6            1 RES     
   15810 H6        -590.1289  -420.0440   519.8656 H6            1 RES     
   15811 H6        -588.5360  -419.7358   519.1546 H6            1 RES     
   15812 H6        -589.0237  -421.9922   519.1996 H6            1 RES     
   15813 H6        -591.5258  -421.8456   517.6232 H6            1 RES     
   15814 H6        -590.5200  -423.3455   517.7151 H6            1 RES     
   15815 H6        -590.4080  -423.3301   520.0749 H6            1 RES     
   15816 H6        -591.3984  -421.7777   520.1694 H6            1 RES     
   15817 H6        -592.3275  -424.6410   519.6479 H6            1 RES     
   15818 H6        -593.3928  -423.1701   519.7095 H6            1 RES     
   15819 H6        -591.4071  -424.0084   521.9799 H6            1 RES     
   15820 H6        -592.5009  -422.5885   521.9805 H6            1 RES     
   15821 H6        -594.4819  -424.1087   522.0440 H6            1 RES     
   15822 H6        -593.3600  -424.2106   523.4490 H6            1 RES     
   15823 H6        -592.3020  -426.2577   522.5723 H6            1 RES     
   15824 H6        -593.4338  -426.2505   521.1543 H6            1 RES     
   15825 H6        -594.0707  -426.4551   522.8344 H6            1 RES     
   15826 H6        -587.5287  -420.8812   517.5320 H6            1 RES     
   15827 H6        -588.6833  -421.6671   516.4186 H6            1 RES     
   15828 H6        -587.1375  -422.8895   515.6380 H6            1 RES     
   15829 H6        -585.6094  -423.1199   516.4013 H6            1 RES     
   15830 H6        -587.8874  -425.2362   516.2874 H6            1 RES     
   15831 H6        -585.9118  -425.8054   517.6852 H6            1 RES     
   15832 H6        -586.3116  -427.0008   516.4179 H6            1 RES     
   15833 H6        -584.4398  -426.3305   514.9864 H6            1 RES     
   15834 H6        -584.0848  -424.9309   516.0162 H6            1 RES     
   15835 H6        -582.4419  -426.5619   516.5490 H6            1 RES     
   15836 H6        -583.5438  -426.4956   517.9377 H6            1 RES     
   15837 H6        -584.6878  -428.5879   517.1635 H6            1 RES     
   15838 H6        -582.9402  -428.7910   517.5023 H6            1 RES     
   15839 H6        -584.2045  -428.5632   514.6889 H6            1 RES     
   15840 H6        -583.5877  -430.0389   515.4976 H6            1 RES     
   15841 H6        -581.2725  -429.0563   515.5576 H6            1 RES     
   15842 H6        -581.9268  -429.2112   513.8830 H6            1 RES     
   15843 H6        -581.8788  -427.6023   514.6634 H6            1 RES     
   15844 H6        -587.9083  -424.6452   514.0430 H6            1 RES     
   15845 H6        -586.9359  -426.1420   514.1105 H6            1 RES     
   15846 H6        -584.8418  -424.5222   513.9221 H6            1 RES     
   15847 H6        -585.9966  -423.2040   513.6792 H6            1 RES     
   15848 H6        -584.9847  -424.0645   511.6239 H6            1 RES     
   15849 H6        -585.6003  -425.7249   511.9285 H6            1 RES     
   15850 H6        -587.3735  -423.2311   511.4131 H6            1 RES     
   15851 H6        -587.9431  -424.9180   511.6917 H6            1 RES     
   15852 H6        -586.7431  -425.6823   509.6206 H6            1 RES     
   15853 H6        -588.0197  -424.4487   509.3264 H6            1 RES     
   15854 H6        -584.9913  -423.8603   509.4468 H6            1 RES     
   15855 H6        -586.2860  -422.6453   509.1525 H6            1 RES     
   15856 H6        -585.0869  -423.3648   507.0952 H6            1 RES     
   15857 H6        -585.5690  -425.0759   507.3684 H6            1 RES     
   15858 H6        -587.9832  -424.4244   507.0488 H6            1 RES     
   15859 H6        -586.9734  -423.9460   505.6452 H6            1 RES     
   15860 H6        -587.4774  -422.6953   506.8416 H6            1 RES     
   15861 C0        -595.8601  -417.3368   526.0740 C0            1 RES     
   15862 C0        -595.7950  -416.6638   527.5043 C0            1 RES     
   15863 C0        -594.5233  -416.3243   527.8223 C0            1 RES     
   15864 S1        -594.3679  -415.5660   529.3115 S1            1 RES     
   15865 C0        -596.0349  -415.6343   529.6340 C0            1 RES     
   15866 C0        -596.6531  -416.3337   528.5875 C0            1 RES     
   15867 C0        -593.6425  -416.7857   526.8147 C0            1 RES     
   15868 C0        -594.3421  -417.3616   525.8636 C0            1 RES     
   15869 C0        -593.4824  -418.0270   524.9252 C0            1 RES     
   15870 C0        -592.1505  -417.9009   525.2759 C0            1 RES     
   15871 S1        -591.8635  -416.8896   526.7387 S1            1 RES     
   15872 H2        -597.6919  -416.5379   528.6213 H2            1 RES     
   15873 H2        -593.8300  -418.6488   524.1553 H2            1 RES     
   15874 N3        -598.8396  -414.2096   531.7660 N3            1 RES     
   15875 C0        -598.1681  -414.8750   530.7847 C0            1 RES     
   15876 C0        -596.7511  -414.9726   530.7815 C0            1 RES     
   15877 C0        -596.0809  -414.3537   531.8587 C0            1 RES     
   15878 N3        -594.7333  -414.3470   532.0290 N3            1 RES     
   15879 S1        -594.5521  -413.4921   533.4299 S1            1 RES     
   15880 N3        -596.0946  -413.1014   533.8609 N3            1 RES     
   15881 C0        -596.8245  -413.6698   532.8649 C0            1 RES     
   15882 C0        -598.2054  -413.6044   532.8000 C0            1 RES     
   15883 H4        -598.7558  -415.2949   529.9949 H4            1 RES     
   15884 C5        -596.7994  -407.7216   531.2254 C5            1 RES     
   15885 C5        -596.1151  -409.0824   531.3541 C5            1 RES     
   15886 C5        -596.9189  -410.2261   530.7122 C5            1 RES     
   15887 C5        -597.0404  -410.1043   529.1821 C5            1 RES     
   15888 C5        -597.8156  -411.2950   528.5975 C5            1 RES     
   15889 C5        -597.8159  -411.2627   527.0533 C5            1 RES     
   15890 C5        -598.5308  -412.4611   526.3741 C5            1 RES     
   15891 C5        -598.0179  -413.7879   526.9367 C5            1 RES     
   15892 C5        -598.2944  -415.0764   526.1218 C5            1 RES     
   15893 C5        -599.7675  -415.6338   526.0336 C5            1 RES     
   15894 C5        -600.0978  -416.2300   527.4301 C5            1 RES     
   15895 C5        -601.3766  -416.9520   527.8710 C5            1 RES     
   15896 C5        -601.1101  -417.3515   529.3598 C5            1 RES     
   15897 C5        -602.2087  -418.1021   530.1103 C5            1 RES     
   15898 C5        -602.3934  -419.5346   529.6251 C5            1 RES     
   15899 C5        -597.3220  -415.2419   524.9449 C5            1 RES     
   15900 C0        -596.7430  -416.7112   524.8275 C0            1 RES     
   15901 C5        -596.2968  -416.9657   523.3232 C5            1 RES     
   15902 C5        -596.8872  -418.2157   522.5817 C5            1 RES     
   15903 C5        -596.0839  -419.5303   522.8004 C5            1 RES     
   15904 C5        -594.7699  -419.6417   521.9912 C5            1 RES     
   15905 C5        -593.8705  -420.8100   522.4403 C5            1 RES     
   15906 C5        -594.3957  -422.2137   522.1009 C5            1 RES     
   15907 C5        -594.5192  -422.5076   520.5932 C5            1 RES     
   15908 C5        -593.1908  -422.3755   519.8417 C5            1 RES     
   15909 C5        -597.2080  -417.9472   521.0601 C5            1 RES     
   15910 C5        -596.1231  -417.2130   520.2246 C5            1 RES     
   15911 C5        -596.3925  -417.1883   518.7032 C5            1 RES     
   15912 C5        -597.6799  -416.4552   518.2767 C5            1 RES     
   15913 C5        -597.8682  -416.4088   516.7403 C5            1 RES     
   15914 C5        -596.8119  -415.5476   516.0134 C5            1 RES     
   15915 C5        -596.9835  -415.5051   514.4829 C5            1 RES     
   15916 C5        -598.2802  -414.8388   514.0230 C5            1 RES     
   15917 H6        -596.8892  -407.4150   530.1640 H6            1 RES     
   15918 H6        -596.1957  -406.9534   531.7531 H6            1 RES     
   15919 H6        -597.8091  -407.7567   531.6871 H6            1 RES     
   15920 H6        -595.0979  -409.0336   530.9076 H6            1 RES     
   15921 H6        -596.0038  -409.3047   532.4380 H6            1 RES     
   15922 H6        -596.3880  -411.1764   530.9447 H6            1 RES     
   15923 H6        -597.9283  -410.2733   531.1749 H6            1 RES     
   15924 H6        -596.0134  -410.0872   528.7530 H6            1 RES     
   15925 H6        -597.5631  -409.1680   528.8986 H6            1 RES     
   15926 H6        -597.3020  -412.2166   528.9451 H6            1 RES     
   15927 H6        -598.8580  -411.2958   528.9817 H6            1 RES     
   15928 H6        -598.2752  -410.3184   526.6900 H6            1 RES     
   15929 H6        -596.7528  -411.2724   526.7228 H6            1 RES     
   15930 H6        -599.6316  -412.4108   526.5166 H6            1 RES     
   15931 H6        -598.3115  -412.3939   525.2867 H6            1 RES     
   15932 H6        -598.4104  -413.8967   527.9650 H6            1 RES     
   15933 H6        -596.9113  -413.7122   527.0394 H6            1 RES     
   15934 H6        -597.8579  -415.7934   526.7169 H6            1 RES     
   15935 H6        -600.4755  -414.8408   525.7134 H6            1 RES     
   15936 H6        -599.8112  -416.4718   525.3033 H6            1 RES     
   15937 H6        -599.3512  -417.0373   527.5506 H6            1 RES     
   15938 H6        -599.9620  -415.4031   528.1474 H6            1 RES     
   15939 H6        -601.5481  -417.8522   527.2422 H6            1 RES     
   15940 H6        -602.2534  -416.2750   527.8051 H6            1 RES     
   15941 H6        -600.1796  -417.9630   529.4332 H6            1 RES     
   15942 H6        -600.9324  -416.4149   529.9327 H6            1 RES     
   15943 H6        -603.1608  -417.5356   530.0644 H6            1 RES     
   15944 H6        -601.8918  -418.1632   531.1772 H6            1 RES     
   15945 H6        -601.4370  -420.0961   529.7159 H6            1 RES     
   15946 H6        -602.7378  -419.5542   528.5731 H6            1 RES     
   15947 H6        -603.1484  -420.0373   530.2668 H6            1 RES     
   15948 H6        -596.4230  -414.5976   525.0551 H6            1 RES     
   15949 H6        -597.8704  -414.8818   524.0478 H6            1 RES     
   15950 H6        -596.7542  -416.1350   522.7530 H6            1 RES     
   15951 H6        -595.2151  -416.8041   523.1456 H6            1 RES     
   15952 H6        -597.8839  -418.4002   523.0427 H6            1 RES     
   15953 H6        -595.8914  -419.6220   523.8897 H6            1 RES     
   15954 H6        -596.7201  -420.3931   522.5065 H6            1 RES     
   15955 H6        -594.9807  -419.7404   520.9094 H6            1 RES     
   15956 H6        -594.1867  -418.7099   522.1148 H6            1 RES     
   15957 H6        -592.8700  -420.6825   521.9791 H6            1 RES     
   15958 H6        -593.7149  -420.7561   523.5373 H6            1 RES     
   15959 H6        -595.3810  -422.3709   522.5877 H6            1 RES     
   15960 H6        -593.6868  -422.9515   522.5363 H6            1 RES     
   15961 H6        -595.2746  -421.8442   520.1242 H6            1 RES     
   15962 H6        -594.8748  -423.5542   520.4819 H6            1 RES     
   15963 H6        -592.4203  -423.0351   520.2952 H6            1 RES     
   15964 H6        -593.3326  -422.6707   518.7815 H6            1 RES     
   15965 H6        -592.8271  -421.3273   519.8490 H6            1 RES     
   15966 H6        -598.1093  -417.2987   521.0122 H6            1 RES     
   15967 H6        -597.4802  -418.9152   520.5857 H6            1 RES     
   15968 H6        -595.1397  -417.6894   520.3327 H6            1 RES     
   15969 H6        -596.0090  -416.1700   520.5894 H6            1 RES     
   15970 H6        -595.5193  -416.6812   518.2469 H6            1 RES     
   15971 H6        -596.4236  -418.2321   518.3195 H6            1 RES     
   15972 H6        -597.6791  -415.4164   518.6725 H6            1 RES     
   15973 H6        -598.5485  -416.9946   518.7059 H6            1 RES     
   15974 H6        -597.8589  -417.4431   516.3317 H6            1 RES     
   15975 H6        -598.8716  -415.9710   516.5452 H6            1 RES     
   15976 H6        -595.8036  -415.9677   516.1994 H6            1 RES     
   15977 H6        -596.8376  -414.5101   516.4126 H6            1 RES     
   15978 H6        -596.1373  -414.9189   514.0609 H6            1 RES     
   15979 H6        -596.9282  -416.5343   514.0675 H6            1 RES     
   15980 H6        -599.1675  -415.4132   514.3565 H6            1 RES     
   15981 H6        -598.2975  -414.7994   512.9126 H6            1 RES     
   15982 H6        -598.3402  -413.8004   514.4124 H6            1 RES     
   15983 C0        -602.4493  -411.7813   535.5762 C0            1 RES     
   15984 C0        -602.0314  -411.4894   537.0739 C0            1 RES     
   15985 C0        -600.6839  -411.4633   537.2044 C0            1 RES     
   15986 S1        -600.1518  -411.1198   538.7586 S1            1 RES     
   15987 C0        -601.7285  -410.9697   539.3741 C0            1 RES     
   15988 C0        -602.6295  -411.2812   538.3457 C0            1 RES     
   15989 C0        -600.0807  -411.8191   535.9740 C0            1 RES     
   15990 C0        -601.0198  -412.0209   535.0779 C0            1 RES     
   15991 C0        -600.4704  -412.5842   533.8766 C0            1 RES     
   15992 C0        -599.1055  -412.7803   533.9834 C0            1 RES     
   15993 S1        -598.3962  -412.2118   535.5386 S1            1 RES     
   15994 H2        -603.6712  -411.3023   538.5359 H2            1 RES     
   15995 H2        -601.0527  -412.9346   533.0776 H2            1 RES     
   15996 N3        -603.8176  -409.6238   542.2493 N3            1 RES     
   15997 C0        -603.4562  -410.1441   541.0428 C0            1 RES     
   15998 C0        -602.1092  -410.4847   540.7480 C0            1 RES     
   15999 C0        -601.1707  -410.2666   541.7796 C0            1 RES     
   16000 N3        -599.8427  -410.5366   541.6859 N3            1 RES     
   16001 S1        -599.2782  -410.0843   543.1700 S1            1 RES     
   16002 N3        -600.6205  -409.5433   543.9594 N3            1 RES     
   16003 C0        -601.5939  -409.7220   543.0275 C0            1 RES     
   16004 C0        -602.9230  -409.4023   543.2434 C0            1 RES     
   16005 H4        -604.2302  -410.2547   540.3119 H4            1 RES     
   16006 C5        -600.5408  -403.6536   542.6593 C5            1 RES     
   16007 C5        -600.1518  -405.1042   542.3746 C5            1 RES     
   16008 C5        -601.2672  -405.9037   541.6798 C5            1 RES     
   16009 C5        -601.5845  -405.4026   540.2588 C5            1 RES     
   16010 C5        -602.6738  -406.2656   539.6040 C5            1 RES     
   16011 C5        -602.8953  -405.8679   538.1280 C5            1 RES     
   16012 C5        -603.9421  -406.7264   537.3692 C5            1 RES     
   16013 C5        -603.6472  -408.2176   537.5409 C5            1 RES     
   16014 C5        -604.3099  -409.2067   536.5493 C5            1 RES     
   16015 C5        -605.8646  -409.4604   536.6339 C5            1 RES     
   16016 C5        -606.1047  -410.3039   537.9167 C5            1 RES     
   16017 C5        -607.4288  -410.8745   538.4384 C5            1 RES     
   16018 C5        -607.0369  -411.6566   539.7353 C5            1 RES     
   16019 C5        -608.1474  -412.3597   540.5139 C5            1 RES     
   16020 C5        -608.7035  -413.5808   539.7920 C5            1 RES     
   16021 C5        -603.5802  -409.2555   535.1992 C5            1 RES     
   16022 C0        -603.3523  -410.7329   534.6763 C0            1 RES     
   16023 C5        -603.1981  -410.6969   533.0946 C5            1 RES     
   16024 C5        -604.1448  -411.6116   532.2416 C5            1 RES     
   16025 C5        -603.6177  -413.0603   532.0298 C5            1 RES     
   16026 C5        -602.4922  -413.2045   530.9781 C5            1 RES     
   16027 C5        -601.8069  -414.5850   530.9989 C5            1 RES     
   16028 C5        -602.6643  -415.7536   530.4882 C5            1 RES     
   16029 C5        -603.0690  -415.6547   529.0045 C5            1 RES     
   16030 C5        -601.8689  -415.5825   528.0550 C5            1 RES     
   16031 C5        -604.6219  -410.9375   530.8969 C5            1 RES     
   16032 C5        -603.5408  -410.2275   530.0361 C5            1 RES     
   16033 C5        -604.0204  -409.7953   528.6321 C5            1 RES     
   16034 C5        -605.1699  -408.7681   528.6188 C5            1 RES     
   16035 C5        -605.5688  -408.3258   527.1894 C5            1 RES     
   16036 C5        -604.4720  -407.5153   526.4641 C5            1 RES     
   16037 C5        -604.8548  -407.0810   525.0363 C5            1 RES     
   16038 C5        -606.0324  -406.1080   524.9792 C5            1 RES     
   16039 H6        -600.7187  -403.0928   541.7198 H6            1 RES     
   16040 H6        -599.7157  -403.1507   543.2064 H6            1 RES     
   16041 H6        -601.4551  -403.6200   543.2891 H6            1 RES     
   16042 H6        -599.2250  -405.1296   541.7606 H6            1 RES     
   16043 H6        -599.9317  -405.5936   543.3485 H6            1 RES     
   16044 H6        -600.9232  -406.9599   541.6077 H6            1 RES     
   16045 H6        -602.1837  -405.8819   542.3081 H6            1 RES     
   16046 H6        -600.6524  -405.4642   539.6533 H6            1 RES     
   16047 H6        -601.9310  -404.3491   540.2775 H6            1 RES     
   16048 H6        -602.3235  -407.3187   539.6516 H6            1 RES     
   16049 H6        -603.6239  -406.1751   540.1727 H6            1 RES     
   16050 H6        -603.1907  -404.7990   538.0596 H6            1 RES     
   16051 H6        -601.9196  -405.9848   537.6047 H6            1 RES     
   16052 H6        -604.9733  -406.5194   537.7275 H6            1 RES     
   16053 H6        -603.8765  -406.4423   536.2968 H6            1 RES     
   16054 H6        -603.8977  -408.4971   538.5813 H6            1 RES     
   16055 H6        -602.5473  -408.3635   537.4425 H6            1 RES     
   16056 H6        -603.9537  -410.1096   536.8910 H6            1 RES     
   16057 H6        -606.4262  -408.5027   536.6238 H6            1 RES     
   16058 H6        -606.1938  -410.0800   535.7706 H6            1 RES     
   16059 H6        -605.5385  -411.2346   537.7248 H6            1 RES     
   16060 H6        -605.6909  -409.7080   538.7475 H6            1 RES     
   16061 H6        -607.8796  -411.5553   537.6843 H6            1 RES     
   16062 H6        -608.1405  -410.0585   538.6811 H6            1 RES     
   16063 H6        -606.2582  -412.4212   539.5028 H6            1 RES     
   16064 H6        -606.5805  -410.9289   540.4419 H6            1 RES     
   16065 H6        -608.9525  -411.6408   540.7678 H6            1 RES     
   16066 H6        -607.6968  -412.7270   541.4650 H6            1 RES     
   16067 H6        -607.8865  -414.3063   539.5813 H6            1 RES     
   16068 H6        -609.1956  -413.2893   538.8441 H6            1 RES     
   16069 H6        -609.4452  -414.0813   540.4505 H6            1 RES     
   16070 H6        -602.5580  -408.8235   535.2636 H6            1 RES     
   16071 H6        -604.1653  -408.6023   534.5164 H6            1 RES     
   16072 H6        -603.5464  -409.6876   532.8040 H6            1 RES     
   16073 H6        -602.1451  -410.6897   532.7495 H6            1 RES     
   16074 H6        -605.0786  -411.7229   532.8379 H6            1 RES     
   16075 H6        -603.2905  -413.4404   533.0201 H6            1 RES     
   16076 H6        -604.4598  -413.7034   531.6941 H6            1 RES     
   16077 H6        -602.8766  -413.0050   529.9599 H6            1 RES     
   16078 H6        -601.7116  -412.4458   531.1745 H6            1 RES     
   16079 H6        -600.8817  -414.5288   530.3902 H6            1 RES     
   16080 H6        -601.4831  -414.8213   532.0332 H6            1 RES     
   16081 H6        -603.5774  -415.8470   531.1126 H6            1 RES     
   16082 H6        -602.0730  -416.6862   530.6199 H6            1 RES     
   16083 H6        -603.7259  -414.7771   528.8342 H6            1 RES     
   16084 H6        -603.6525  -416.5660   528.7529 H6            1 RES     
   16085 H6        -601.1988  -416.4554   528.2083 H6            1 RES     
   16086 H6        -602.2255  -415.5879   527.0042 H6            1 RES     
   16087 H6        -601.2926  -414.6464   528.2056 H6            1 RES     
   16088 H6        -605.3608  -410.1486   531.1558 H6            1 RES     
   16089 H6        -605.1617  -411.7020   530.2967 H6            1 RES     
   16090 H6        -602.6770  -410.8806   529.8542 H6            1 RES     
   16091 H6        -603.1538  -409.3375   530.5766 H6            1 RES     
   16092 H6        -603.1362  -409.3552   528.1296 H6            1 RES     
   16093 H6        -604.3301  -410.6960   528.0572 H6            1 RES     
   16094 H6        -604.8887  -407.8698   529.2102 H6            1 RES     
   16095 H6        -606.0606  -409.2333   529.0878 H6            1 RES     
   16096 H6        -605.8412  -409.2186   526.5848 H6            1 RES     
   16097 H6        -606.4729  -407.6854   527.2837 H6            1 RES     
   16098 H6        -603.5607  -408.1374   526.3637 H6            1 RES     
   16099 H6        -604.2162  -406.6143   527.0635 H6            1 RES     
   16100 H6        -603.9746  -406.5688   524.5881 H6            1 RES     
   16101 H6        -605.0827  -407.9754   524.4173 H6            1 RES     
   16102 H6        -606.9628  -406.5807   525.3527 H6            1 RES     
   16103 H6        -606.2047  -405.8036   523.9244 H6            1 RES     
   16104 H6        -605.8110  -405.1979   525.5759 H6            1 RES     
   16105 C0        -606.2216  -407.5767   547.0943 C0            1 RES     
   16106 C0        -605.5345  -407.7268   548.5114 C0            1 RES     
   16107 C0        -604.2083  -407.9688   548.3834 C0            1 RES     
   16108 S1        -603.3916  -408.1029   549.8434 S1            1 RES     
   16109 C0        -604.7911  -407.8297   550.7674 C0            1 RES     
   16110 C0        -605.8796  -407.7252   549.8896 C0            1 RES     
   16111 C0        -603.8836  -408.1221   547.0140 C0            1 RES     
   16112 C0        -604.9660  -407.9376   546.2928 C0            1 RES     
   16113 C0        -604.7333  -408.2866   544.9194 C0            1 RES     
   16114 C0        -603.4414  -408.7383   544.7201 C0            1 RES     
   16115 S1        -602.4052  -408.6888   546.1928 S1            1 RES     
   16116 H2        -606.8621  -407.6082   550.2678 H2            1 RES     
   16117 H2        -605.4885  -408.3297   544.1926 H2            1 RES     
   16118 N3        -606.0962  -406.8609   554.2026 N3            1 RES     
   16119 C0        -606.0367  -407.1347   552.8691 C0            1 RES     
   16120 C0        -604.8523  -407.6260   552.2582 C0            1 RES     
   16121 C0        -603.7470  -407.8270   553.1130 C0            1 RES     
   16122 N3        -602.5361  -408.2952   552.7132 N3            1 RES     
   16123 S1        -601.6751  -408.3145   554.1218 S1            1 RES     
   16124 N3        -602.7392  -407.7501   555.2473 N3            1 RES     
   16125 C0        -603.8550  -407.5290   554.5031 C0            1 RES     
   16126 C0        -605.0382  -407.0420   555.0305 C0            1 RES     
   16127 H4        -606.9156  -406.9313   552.2933 H4            1 RES     
   16128 C5        -601.5955  -401.8278   555.1826 C5            1 RES     
   16129 C5        -601.5720  -403.2143   554.5393 C5            1 RES     
   16130 C5        -602.9225  -403.6178   553.9236 C5            1 RES     
   16131 C5        -603.3317  -402.7459   552.7222 C5            1 RES     
   16132 C5        -604.6648  -403.2242   552.1269 C5            1 RES     
   16133 C5        -605.0117  -402.4548   550.8333 C5            1 RES     
   16134 C5        -606.3181  -402.9115   550.1310 C5            1 RES     
   16135 C5        -606.3266  -404.4287   549.9357 C5            1 RES     
   16136 C5        -607.3245  -405.0221   548.9096 C5            1 RES     
   16137 C5        -608.8675  -405.0124   549.2374 C5            1 RES     
   16138 C5        -609.0902  -406.0810   550.3434 C5            1 RES     
   16139 C5        -610.4136  -406.5183   550.9823 C5            1 RES     
   16140 C5        -610.0108  -407.6423   551.9930 C5            1 RES     
   16141 C5        -611.1184  -408.3046   552.8105 C5            1 RES     
   16142 C5        -612.0230  -409.2024   551.9755 C5            1 RES     
   16143 C5        -606.8296  -404.8758   547.4633 C5            1 RES     
   16144 C0        -607.0025  -406.2032   546.6169 C0            1 RES     
   16145 C5        -607.0794  -405.8200   545.0761 C5            1 RES     
   16146 C5        -608.3152  -406.3255   544.2527 C5            1 RES     
   16147 C5        -608.1471  -407.7517   543.6533 C5            1 RES     
   16148 C5        -607.2463  -407.8368   542.3983 C5            1 RES     
   16149 C5        -606.8765  -409.2807   542.0058 C5            1 RES     
   16150 C5        -608.0296  -410.1258   541.4421 C5            1 RES     
   16151 C5        -608.6184  -409.6080   540.1155 C5            1 RES     
   16152 C5        -607.5844  -409.5236   538.9883 C5            1 RES     
   16153 C5        -608.8305  -405.2785   543.1904 C5            1 RES     
   16154 C5        -607.7619  -404.5849   542.3010 C5            1 RES     
   16155 C5        -608.3400  -403.7545   541.1330 C5            1 RES     
   16156 C5        -609.2325  -402.5686   541.5499 C5            1 RES     
   16157 C5        -609.7343  -401.7366   540.3441 C5            1 RES     
   16158 C5        -608.6091  -400.9819   539.6023 C5            1 RES     
   16159 C5        -609.0968  -400.1608   538.3933 C5            1 RES     
   16160 C5        -610.0345  -399.0114   538.7625 C5            1 RES     
   16161 H6        -601.7863  -401.0376   554.4289 H6            1 RES     
   16162 H6        -600.6105  -401.6217   555.6519 H6            1 RES     
   16163 H6        -602.3783  -401.7852   555.9696 H6            1 RES     
   16164 H6        -600.7731  -403.2550   553.7669 H6            1 RES     
   16165 H6        -601.3202  -403.9518   555.3326 H6            1 RES     
   16166 H6        -602.8267  -404.6701   553.5734 H6            1 RES     
   16167 H6        -603.7101  -403.5858   554.7071 H6            1 RES     
   16168 H6        -602.5343  -402.8241   551.9495 H6            1 RES     
   16169 H6        -603.4385  -401.6831   553.0211 H6            1 RES     
   16170 H6        -604.5446  -404.3030   551.8910 H6            1 RES     
   16171 H6        -605.4789  -403.1064   552.8737 H6            1 RES     
   16172 H6        -605.0786  -401.3655   551.0419 H6            1 RES     
   16173 H6        -604.1718  -402.6130   550.1199 H6            1 RES     
   16174 H6        -607.2168  -402.6183   550.7150 H6            1 RES     
   16175 H6        -606.3524  -402.3967   549.1466 H6            1 RES     
   16176 H6        -606.4746  -404.8990   550.9257 H6            1 RES     
   16177 H6        -605.3102  -404.7373   549.6005 H6            1 RES     
   16178 H6        -607.1229  -406.0284   548.9855 H6            1 RES     
   16179 H6        -609.2066  -403.9966   549.5304 H6            1 RES     
   16180 H6        -609.4453  -405.3416   548.3457 H6            1 RES     
   16181 H6        -608.7706  -407.0238   549.8611 H6            1 RES     
   16182 H6        -608.4404  -405.7815   551.1830 H6            1 RES     
   16183 H6        -611.1058  -406.9107   550.2062 H6            1 RES     
   16184 H6        -610.8907  -405.6717   551.5179 H6            1 RES     
   16185 H6        -609.4565  -408.4539   551.4647 H6            1 RES     
   16186 H6        -609.3102  -407.1947   552.7319 H6            1 RES     
   16187 H6        -611.7047  -407.5370   553.3551 H6            1 RES     
   16188 H6        -610.6212  -408.9603   553.5624 H6            1 RES     
   16189 H6        -611.4202  -409.9886   551.4689 H6            1 RES     
   16190 H6        -612.5760  -408.6125   551.2192 H6            1 RES     
   16191 H6        -612.7489  -409.7072   552.6483 H6            1 RES     
   16192 H6        -605.7407  -404.6573   547.4170 H6            1 RES     
   16193 H6        -607.3559  -403.9871   547.0530 H6            1 RES     
   16194 H6        -607.2431  -404.7256   545.0694 H6            1 RES     
   16195 H6        -606.1121  -405.9155   544.5442 H6            1 RES     
   16196 H6        -609.1526  -406.4100   544.9817 H6            1 RES     
   16197 H6        -607.7660  -408.4074   544.4639 H6            1 RES     
   16198 H6        -609.1472  -408.1390   543.3617 H6            1 RES     
   16199 H6        -607.7253  -407.3369   541.5350 H6            1 RES     
   16200 H6        -606.3013  -407.2952   542.5914 H6            1 RES     
   16201 H6        -606.0609  -409.2444   541.2552 H6            1 RES     
   16202 H6        -606.4616  -409.8089   542.8886 H6            1 RES     
   16203 H6        -608.8391  -410.2034   542.1978 H6            1 RES     
   16204 H6        -607.6384  -411.1516   541.2653 H6            1 RES     
   16205 H6        -609.0904  -408.6140   540.2566 H6            1 RES     
   16206 H6        -609.4138  -410.3167   539.8003 H6            1 RES     
   16207 H6        -607.1012  -410.5114   538.8292 H6            1 RES     
   16208 H6        -608.0851  -409.2167   538.0468 H6            1 RES     
   16209 H6        -606.8056  -408.7659   539.2128 H6            1 RES     
   16210 H6        -609.3372  -404.4569   543.7413 H6            1 RES     
   16211 H6        -609.6037  -405.7718   542.5621 H6            1 RES     
   16212 H6        -607.0942  -405.3170   541.8277 H6            1 RES     
   16213 H6        -607.1182  -403.9308   542.9268 H6            1 RES     
   16214 H6        -607.4663  -403.3695   540.5705 H6            1 RES     
   16215 H6        -608.9165  -404.4243   540.4572 H6            1 RES     
   16216 H6        -608.6817  -401.9000   542.2465 H6            1 RES     
   16217 H6        -610.1228  -402.9685   542.0764 H6            1 RES     
   16218 H6        -610.2774  -402.3983   539.6342 H6            1 RES     
   16219 H6        -610.4566  -400.9888   540.7385 H6            1 RES     
   16220 H6        -607.8768  -401.7120   539.2044 H6            1 RES     
   16221 H6        -608.0810  -400.3083   540.3120 H6            1 RES     
   16222 H6        -608.2036  -399.7191   537.8984 H6            1 RES     
   16223 H6        -609.5994  -400.8284   537.6608 H6            1 RES     
   16224 H6        -610.9788  -399.3888   539.2034 H6            1 RES     
   16225 H6        -610.2917  -398.4398   537.8448 H6            1 RES     
   16226 H6        -609.5381  -398.3223   539.4781 H6            1 RES     
   16227 C0        -607.2647  -405.6350   559.7321 C0            1 RES     
   16228 C0        -606.4239  -406.2353   560.9303 C0            1 RES     
   16229 C0        -605.2139  -406.6683   560.5036 C0            1 RES     
   16230 S1        -604.2382  -407.2864   561.7214 S1            1 RES     
   16231 C0        -605.3948  -406.9997   562.9327 C0            1 RES     
   16232 C0        -606.5533  -406.5007   562.3200 C0            1 RES     
   16233 C0        -605.1353  -406.5464   559.0954 C0            1 RES     
   16234 C0        -606.2476  -406.0092   558.6482 C0            1 RES     
   16235 C0        -606.3004  -406.0572   557.2140 C0            1 RES     
   16236 C0        -605.1788  -406.6677   556.6828 C0            1 RES     
   16237 S1        -603.9501  -407.1517   557.9079 S1            1 RES     
   16238 H2        -607.4211  -406.3067   562.8955 H2            1 RES     
   16239 H2        -607.1462  -405.7935   556.6524 H2            1 RES     
   16240 N3        -605.9407  -406.6616   566.6784 N3            1 RES     
   16241 C0        -606.1387  -406.6168   565.3309 C0            1 RES     
   16242 C0        -605.1901  -407.1485   564.4172 C0            1 RES     
   16243 C0        -604.0395  -407.7372   564.9848 C0            1 RES     
   16244 N3        -603.0293  -408.3016   564.2733 N3            1 RES     
   16245 S1        -601.9939  -408.8054   565.4566 S1            1 RES     
   16246 N3        -602.7346  -408.3471   566.8562 N3            1 RES     
   16247 C0        -603.8748  -407.7637   566.4008 C0            1 RES     
   16248 C0        -604.8354  -407.2166   567.2333 C0            1 RES     
   16249 H4        -607.0290  -406.1318   564.9882 H4            1 RES     
   16250 C5        -600.3742  -402.8736   567.7800 C5            1 RES     
   16251 C5        -600.7427  -404.0496   566.8757 C5            1 RES     
   16252 C5        -602.2241  -404.0524   566.4615 C5            1 RES     
   16253 C5        -602.6104  -402.8623   565.5641 C5            1 RES     
   16254 C5        -604.0879  -402.9444   565.1510 C5            1 RES     
   16255 C5        -604.4495  -401.8412   564.1322 C5            1 RES     
   16256 C5        -605.9124  -401.8820   563.6156 C5            1 RES     
   16257 C5        -606.2737  -403.2837   563.1211 C5            1 RES     
   16258 C5        -607.5156  -403.4323   562.2065 C5            1 RES     
   16259 C5        -608.9551  -403.2306   562.8193 C5            1 RES     
   16260 C5        -609.2352  -404.4754   563.7064 C5            1 RES     
   16261 C5        -610.5123  -404.8133   564.4847 C5            1 RES     
   16262 C5        -610.2142  -406.1978   565.1491 C5            1 RES     
   16263 C5        -611.3046  -406.8308   566.0117 C5            1 RES     
   16264 C5        -612.4933  -407.3319   565.2009 C5            1 RES     
   16265 C5        -607.2201  -403.0356   560.7529 C5            1 RES     
   16266 C0        -607.7957  -404.0724   559.7032 C0            1 RES     
   16267 C5        -608.0157  -403.3268   558.3167 C5            1 RES     
   16268 C5        -609.4387  -403.3979   557.6603 C5            1 RES     
   16269 C5        -609.6696  -404.6476   556.7624 C5            1 RES     
   16270 C5        -609.0034  -404.5885   555.3673 C5            1 RES     
   16271 C5        -609.0128  -405.9396   554.6256 C5            1 RES     
   16272 C5        -610.3902  -406.4112   554.1337 C5            1 RES     
   16273 C5        -611.0440  -405.4982   553.0784 C5            1 RES     
   16274 C5        -610.1940  -405.3309   551.8150 C5            1 RES     
   16275 C5        -609.8694  -402.0549   556.9525 C5            1 RES     
   16276 C5        -608.8207  -401.3680   556.0347 C5            1 RES     
   16277 C5        -609.3740  -400.1959   555.1933 C5            1 RES     
   16278 C5        -609.9209  -399.0056   556.0062 C5            1 RES     
   16279 C5        -610.4057  -397.8364   555.1141 C5            1 RES     
   16280 C5        -609.2675  -397.1361   554.3396 C5            1 RES     
   16281 C5        -609.7415  -395.9789   553.4396 C5            1 RES     
   16282 C5        -610.3469  -394.8042   554.2079 C5            1 RES     
   16283 H6        -600.5009  -401.9061   567.2539 H6            1 RES     
   16284 H6        -599.3097  -402.9606   568.0835 H6            1 RES     
   16285 H6        -601.0048  -402.8827   568.6944 H6            1 RES     
   16286 H6        -600.0941  -404.0449   565.9725 H6            1 RES     
   16287 H6        -600.5400  -404.9868   567.4389 H6            1 RES     
   16288 H6        -602.4082  -404.9914   565.8928 H6            1 RES     
   16289 H6        -602.8621  -404.0700   567.3714 H6            1 RES     
   16290 H6        -601.9712  -402.8931   564.6533 H6            1 RES     
   16291 H6        -602.4422  -401.8991   566.0879 H6            1 RES     
   16292 H6        -604.2371  -403.9402   564.6819 H6            1 RES     
   16293 H6        -604.7385  -402.8667   566.0482 H6            1 RES     
   16294 H6        -604.2505  -400.8382   564.5670 H6            1 RES     
   16295 H6        -603.7776  -401.9700   563.2540 H6            1 RES     
   16296 H6        -606.6312  -401.5832   564.4085 H6            1 RES     
   16297 H6        -605.9809  -401.1503   562.7819 H6            1 RES     
   16298 H6        -606.3708  -403.9424   564.0042 H6            1 RES     
   16299 H6        -605.4076  -403.6769   562.5414 H6            1 RES     
   16300 H6        -607.5248  -404.4470   562.0359 H6            1 RES     
   16301 H6        -609.0223  -402.2703   563.3724 H6            1 RES     
   16302 H6        -609.7152  -403.2322   562.0071 H6            1 RES     
   16303 H6        -609.1993  -405.3176   562.9901 H6            1 RES     
   16304 H6        -608.4198  -404.5024   564.4488 H6            1 RES     
   16305 H6        -611.3792  -404.8826   563.7926 H6            1 RES     
   16306 H6        -610.7129  -404.0480   565.2629 H6            1 RES     
   16307 H6        -609.9305  -406.9448   564.3703 H6            1 RES     
   16308 H6        -609.3329  -406.0684   565.8151 H6            1 RES     
   16309 H6        -611.6263  -406.1241   566.8033 H6            1 RES     
   16310 H6        -610.8536  -407.7230   566.5046 H6            1 RES     
   16311 H6        -612.1541  -408.0683   564.4387 H6            1 RES     
   16312 H6        -613.0130  -406.4918   564.7009 H6            1 RES     
   16313 H6        -613.2028  -407.8469   565.8833 H6            1 RES     
   16314 H6        -606.1287  -403.0065   560.5439 H6            1 RES     
   16315 H6        -607.5990  -401.9968   560.6408 H6            1 RES     
   16316 H6        -607.9409  -402.2510   558.5644 H6            1 RES     
   16317 H6        -607.1806  -403.4611   557.6009 H6            1 RES     
   16318 H6        -610.1578  -403.5051   558.5037 H6            1 RES     
   16319 H6        -609.3221  -405.5334   557.3340 H6            1 RES     
   16320 H6        -610.7613  -404.7732   556.5955 H6            1 RES     
   16321 H6        -609.4866  -403.8219   554.7322 H6            1 RES     
   16322 H6        -607.9466  -404.2824   555.4817 H6            1 RES     
   16323 H6        -608.3283  -405.8695   553.7559 H6            1 RES     
   16324 H6        -608.5946  -406.7266   555.2860 H6            1 RES     
   16325 H6        -611.0768  -406.5232   554.9988 H6            1 RES     
   16326 H6        -610.2578  -407.4179   553.6801 H6            1 RES     
   16327 H6        -611.2665  -404.4994   553.5068 H6            1 RES     
   16328 H6        -612.0101  -405.9613   552.7842 H6            1 RES     
   16329 H6        -609.9619  -406.3215   551.3685 H6            1 RES     
   16330 H6        -610.7510  -404.7263   551.0696 H6            1 RES     
   16331 H6        -609.2468  -404.7966   552.0353 H6            1 RES     
   16332 H6        -610.1018  -401.3120   557.7459 H6            1 RES     
   16333 H6        -610.8143  -402.2416   556.3972 H6            1 RES     
   16334 H6        -608.4022  -402.0720   555.3031 H6            1 RES     
   16335 H6        -607.9668  -401.0044   556.6452 H6            1 RES     
   16336 H6        -608.5311  -399.8474   554.5640 H6            1 RES     
   16337 H6        -610.1737  -400.5744   554.5188 H6            1 RES     
   16338 H6        -609.1432  -398.6287   556.7054 H6            1 RES     
   16339 H6        -610.7883  -399.3569   556.6011 H6            1 RES     
   16340 H6        -611.1765  -398.2048   554.4021 H6            1 RES     
   16341 H6        -610.8852  -397.0891   555.7836 H6            1 RES     
   16342 H6        -608.7751  -397.8674   553.6685 H6            1 RES     
   16343 H6        -608.5087  -396.7535   555.0568 H6            1 RES     
   16344 H6        -608.8577  -395.5957   552.8829 H6            1 RES     
   16345 H6        -610.4777  -396.3548   552.6969 H6            1 RES     
   16346 H6        -611.2742  -395.1042   554.7356 H6            1 RES     
   16347 H6        -610.6086  -393.9950   553.4926 H6            1 RES     
   16348 H6        -609.6145  -394.4028   554.9400 H6            1 RES     
   16349 C0        -605.9903  -406.5992   572.4608 C0            1 RES     
   16350 C0        -605.1297  -407.6046   573.3277 C0            1 RES     
   16351 C0        -604.1169  -408.1289   572.5977 C0            1 RES     
   16352 S1        -603.1268  -409.1795   573.4538 S1            1 RES     
   16353 C0        -604.0036  -408.9909   574.8971 C0            1 RES     
   16354 C0        -605.1062  -408.1657   574.6327 C0            1 RES     
   16355 C0        -604.2229  -407.6916   571.2555 C0            1 RES     
   16356 C0        -605.2483  -406.8774   571.1489 C0            1 RES     
   16357 C0        -605.5213  -406.5733   569.7723 C0            1 RES     
   16358 C0        -604.6471  -407.2268   568.9228 C0            1 RES     
   16359 S1        -603.3832  -408.1954   569.7648 S1            1 RES     
   16360 H2        -605.8178  -407.9651   575.3912 H2            1 RES     
   16361 H2        -606.3647  -406.0398   569.4491 H2            1 RES     
   16362 N3        -603.9053  -409.4620   578.6668 N3            1 RES     
   16363 C0        -604.2859  -409.0645   577.4202 C0            1 RES     
   16364 C0        -603.6185  -409.5215   576.2527 C0            1 RES     
   16365 C0        -602.5493  -410.4203   576.4571 C0            1 RES     
   16366 N3        -601.7995  -410.9675   575.4653 N3            1 RES     
   16367 S1        -600.7325  -411.9112   576.3001 S1            1 RES     
   16368 N3        -601.1432  -411.6761   577.8793 N3            1 RES     
   16369 C0        -602.1868  -410.8109   577.7795 C0            1 RES     
   16370 C0        -602.8746  -410.3176   578.8745 C0            1 RES     
   16371 H4        -605.0926  -408.3637   577.3608 H4            1 RES     
   16372 C5        -597.5577  -407.0791   579.4273 C5            1 RES     
   16373 C5        -598.2984  -407.9234   578.3904 C5            1 RES     
   16374 C5        -599.7907  -407.5683   578.2765 C5            1 RES     
   16375 C5        -600.0419  -406.1504   577.7313 C5            1 RES     
   16376 C5        -601.5472  -405.8720   577.6015 C5            1 RES     
   16377 C5        -601.8112  -404.5126   576.9173 C5            1 RES     
   16378 C5        -603.3089  -404.1727   576.6937 C5            1 RES     
   16379 C5        -604.0303  -405.3312   576.0029 C5            1 RES     
   16380 C5        -605.3965  -405.0384   575.3330 C5            1 RES     
   16381 C5        -606.6530  -404.7393   576.2386 C5            1 RES     
   16382 C5        -607.0584  -406.0903   576.8906 C5            1 RES     
   16383 C5        -608.2489  -406.3744   577.8142 C5            1 RES     
   16384 C5        -608.1588  -407.9073   578.1130 C5            1 RES     
   16385 C5        -609.2196  -408.5261   579.0215 C5            1 RES     
   16386 C5        -610.5944  -408.6041   578.3692 C5            1 RES     
   16387 C5        -605.2410  -404.3658   573.9613 C5            1 RES     
   16388 C0        -606.1735  -405.0064   572.8530 C0            1 RES     
   16389 C5        -606.4314  -403.9261   571.7158 C5            1 RES     
   16390 C5        -607.9177  -403.5889   571.3443 C5            1 RES     
   16391 C5        -608.5404  -404.5292   570.2721 C5            1 RES     
   16392 C5        -608.0904  -404.2580   568.8169 C5            1 RES     
   16393 C5        -608.4978  -405.3711   567.8316 C5            1 RES     
   16394 C5        -610.0013  -405.4637   567.5276 C5            1 RES     
   16395 C5        -610.5935  -404.2262   566.8258 C5            1 RES     
   16396 C5        -609.9235  -403.9150   565.4837 C5            1 RES     
   16397 C5        -608.1512  -402.0621   571.0207 C5            1 RES     
   16398 C5        -607.1272  -401.3714   570.0781 C5            1 RES     
   16399 C5        -607.5353  -399.9548   569.6150 C5            1 RES     
   16400 C5        -607.6890  -398.9148   570.7427 C5            1 RES     
   16401 C5        -608.0391  -397.5009   570.2172 C5            1 RES     
   16402 C5        -606.9046  -396.8471   569.3977 C5            1 RES     
   16403 C5        -607.2481  -395.4447   568.8601 C5            1 RES     
   16404 C5        -607.4681  -394.3988   569.9530 C5            1 RES     
   16405 H6        -597.5509  -406.0076   579.1434 H6            1 RES     
   16406 H6        -596.5034  -407.4208   579.4967 H6            1 RES     
   16407 H6        -598.0335  -407.1947   580.4243 H6            1 RES     
   16408 H6        -597.8044  -407.8180   577.3998 H6            1 RES     
   16409 H6        -598.2198  -408.9881   578.7015 H6            1 RES     
   16410 H6        -600.2531  -408.2981   577.5747 H6            1 RES     
   16411 H6        -600.2761  -407.6895   579.2689 H6            1 RES     
   16412 H6        -599.5658  -406.0754   576.7279 H6            1 RES     
   16413 H6        -599.5963  -405.3840   578.3979 H6            1 RES     
   16414 H6        -601.9735  -406.6859   576.9770 H6            1 RES     
   16415 H6        -602.0265  -405.8970   578.6034 H6            1 RES     
   16416 H6        -601.3405  -403.6924   577.5007 H6            1 RES     
   16417 H6        -601.3196  -404.5447   575.9189 H6            1 RES     
   16418 H6        -603.8221  -403.9496   577.6536 H6            1 RES     
   16419 H6        -603.3418  -403.2635   576.0553 H6            1 RES     
   16420 H6        -604.1345  -406.1533   576.7353 H6            1 RES     
   16421 H6        -603.3637  -405.7209   575.2001 H6            1 RES     
   16422 H6        -605.6474  -405.9658   574.9644 H6            1 RES     
   16423 H6        -606.4309  -403.9414   576.9779 H6            1 RES     
   16424 H6        -607.5072  -404.4147   575.6042 H6            1 RES     
   16425 H6        -607.3095  -406.7311   576.0246 H6            1 RES     
   16426 H6        -606.1671  -406.4353   577.4414 H6            1 RES     
   16427 H6        -609.2031  -406.1244   577.3019 H6            1 RES     
   16428 H6        -608.1642  -405.7929   578.7555 H6            1 RES     
   16429 H6        -608.1595  -408.4857   577.1588 H6            1 RES     
   16430 H6        -607.1817  -408.0961   578.6097 H6            1 RES     
   16431 H6        -609.2624  -407.9826   579.9871 H6            1 RES     
   16432 H6        -608.9020  -409.5746   579.2267 H6            1 RES     
   16433 H6        -610.5367  -409.1860   577.4225 H6            1 RES     
   16434 H6        -610.9905  -407.5917   578.1599 H6            1 RES     
   16435 H6        -611.2888  -409.1340   579.0558 H6            1 RES     
   16436 H6        -604.2118  -404.4795   573.5572 H6            1 RES     
   16437 H6        -605.4015  -403.2804   574.1379 H6            1 RES     
   16438 H6        -606.0927  -402.9701   572.1582 H6            1 RES     
   16439 H6        -605.7594  -404.0306   570.8411 H6            1 RES     
   16440 H6        -608.5104  -403.7658   572.2701 H6            1 RES     
   16441 H6        -608.3096  -405.5722   570.5739 H6            1 RES     
   16442 H6        -609.6461  -404.4184   570.2958 H6            1 RES     
   16443 H6        -608.4870  -403.2901   568.4559 H6            1 RES     
   16444 H6        -606.9876  -404.1777   568.7862 H6            1 RES     
   16445 H6        -607.9503  -405.2173   566.8796 H6            1 RES     
   16446 H6        -608.1646  -406.3532   568.2253 H6            1 RES     
   16447 H6        -610.5606  -405.6559   568.4672 H6            1 RES     
   16448 H6        -610.1556  -406.3409   566.8619 H6            1 RES     
   16449 H6        -610.5316  -403.3346   567.4831 H6            1 RES     
   16450 H6        -611.6688  -404.4295   566.6345 H6            1 RES     
   16451 H6        -609.9770  -404.7961   564.8089 H6            1 RES     
   16452 H6        -610.4422  -403.0627   564.9980 H6            1 RES     
   16453 H6        -608.8621  -403.6227   565.6222 H6            1 RES     
   16454 H6        -608.0996  -401.5001   571.9781 H6            1 RES     
   16455 H6        -609.1856  -401.9431   570.6309 H6            1 RES     
   16456 H6        -606.9816  -401.9436   569.1521 H6            1 RES     
   16457 H6        -606.1348  -401.3186   570.5743 H6            1 RES     
   16458 H6        -606.7399  -399.6199   568.9200 H6            1 RES     
   16459 H6        -608.4880  -400.0161   569.0438 H6            1 RES     
   16460 H6        -606.7541  -398.8570   571.3414 H6            1 RES     
   16461 H6        -608.5138  -399.2399   571.4087 H6            1 RES     
   16462 H6        -608.9673  -397.5488   569.6065 H6            1 RES     
   16463 H6        -608.2435  -396.8619   571.1041 H6            1 RES     
   16464 H6        -606.6846  -397.4727   568.5101 H6            1 RES     
   16465 H6        -605.9843  -396.7848   570.0186 H6            1 RES     
   16466 H6        -606.3949  -395.1011   568.2341 H6            1 RES     
   16467 H6        -608.1490  -395.4984   568.2118 H6            1 RES     
   16468 H6        -608.3498  -394.6484   570.5765 H6            1 RES     
   16469 H6        -607.6536  -393.4099   569.4811 H6            1 RES     
   16470 H6        -606.5670  -394.3174   570.5970 H6            1 RES     
   16471 C0        -603.0858  -410.7673   584.2407 C0            1 RES     
   16472 C0        -602.3415  -412.0846   584.7031 C0            1 RES     
   16473 C0        -601.5833  -412.5895   583.7012 C0            1 RES     
   16474 S1        -600.7253  -413.9700   584.1193 S1            1 RES     
   16475 C0        -601.3185  -413.9791   585.7116 C0            1 RES     
   16476 C0        -602.2459  -412.9348   585.8373 C0            1 RES     
   16477 C0        -601.7905  -411.8342   582.5219 C0            1 RES     
   16478 C0        -602.6224  -410.8514   582.7821 C0            1 RES     
   16479 C0        -603.0244  -410.1860   581.5747 C0            1 RES     
   16480 C0        -602.4454  -410.7617   580.4584 C0            1 RES     
   16481 S1        -601.3074  -412.1085   580.8271 S1            1 RES     
   16482 H2        -602.7782  -412.7987   586.7429 H2            1 RES     
   16483 H2        -603.7725  -409.4518   581.5348 H2            1 RES     
   16484 N3        -600.7674  -415.3420   589.2161 N3            1 RES     
   16485 C0        -601.2342  -414.5994   588.1732 C0            1 RES     
   16486 C0        -600.8598  -414.8756   586.8313 C0            1 RES     
   16487 C0        -599.9892  -415.9701   586.6394 C0            1 RES     
   16488 N3        -599.5286  -416.3886   585.4319 N3            1 RES     
   16489 S1        -598.5766  -417.6754   585.8366 S1            1 RES     
   16490 N3        -598.6896  -417.7541   587.4794 N3            1 RES     
   16491 C0        -599.5273  -416.7209   587.7600 C0            1 RES     
   16492 C0        -599.9243  -416.3893   589.0436 C0            1 RES     
   16493 H4        -601.8722  -413.7744   588.4136 H4            1 RES     
   16494 C5        -594.0162  -414.3574   589.2132 C5            1 RES     
   16495 C5        -595.0651  -414.7881   588.1880 C5            1 RES     
   16496 C5        -596.4471  -414.1604   588.4373 C5            1 RES     
   16497 C5        -596.4672  -412.6321   588.2506 C5            1 RES     
   16498 C5        -597.8805  -412.0717   588.4715 C5            1 RES     
   16499 C5        -597.9460  -410.5641   588.1419 C5            1 RES     
   16500 C5        -599.3526  -409.9240   588.2839 C5            1 RES     
   16501 C5        -600.3989  -410.7404   587.5233 C5            1 RES     
   16502 C5        -601.7545  -410.0623   587.2018 C5            1 RES     
   16503 C5        -602.7702  -409.7716   588.3733 C5            1 RES     
   16504 C5        -603.3541  -411.1463   588.8022 C5            1 RES     
   16505 C5        -604.4281  -411.4287   589.8594 C5            1 RES     
   16506 C5        -604.6245  -412.9801   589.8170 C5            1 RES     
   16507 C5        -605.6469  -413.6014   590.7669 C5            1 RES     
   16508 C5        -607.0875  -413.2802   590.3886 C5            1 RES     
   16509 C5        -601.6633  -409.1211   585.9920 C5            1 RES     
   16510 C0        -602.8643  -409.3065   584.9765 C0            1 RES     
   16511 C5        -603.0505  -407.9591   584.1541 C5            1 RES     
   16512 C5        -604.4685  -407.2884   584.1512 C5            1 RES     
   16513 C5        -605.4292  -407.8231   583.0500 C5            1 RES     
   16514 C5        -605.1516  -407.2970   581.6217 C5            1 RES     
   16515 C5        -605.9284  -408.0552   580.5273 C5            1 RES     
   16516 C5        -607.4450  -407.8081   580.5052 C5            1 RES     
   16517 C5        -607.8561  -406.3553   580.1968 C5            1 RES     
   16518 C5        -607.3408  -405.8566   578.8431 C5            1 RES     
   16519 C5        -604.4155  -405.7118   584.1961 C5            1 RES     
   16520 C5        -603.4184  -405.0073   583.2352 C5            1 RES     
   16521 C5        -603.5781  -403.4723   583.1572 C5            1 RES     
   16522 C5        -603.3377  -402.7196   584.4810 C5            1 RES     
   16523 C5        -603.4513  -401.1825   584.3315 C5            1 RES     
   16524 C5        -602.3371  -400.5618   583.4601 C5            1 RES     
   16525 C5        -602.4484  -399.0340   583.2953 C5            1 RES     
   16526 C5        -602.2760  -398.2558   584.5997 C5            1 RES     
   16527 H6        -593.8227  -413.2673   589.1574 H6            1 RES     
   16528 H6        -593.0609  -414.8849   589.0080 H6            1 RES     
   16529 H6        -594.3531  -414.6213   590.2382 H6            1 RES     
   16530 H6        -594.7118  -414.5385   587.1636 H6            1 RES     
   16531 H6        -595.1707  -415.8930   588.2549 H6            1 RES     
   16532 H6        -597.1532  -414.6100   587.7037 H6            1 RES     
   16533 H6        -596.7952  -414.4270   589.4585 H6            1 RES     
   16534 H6        -596.1396  -412.4055   587.2112 H6            1 RES     
   16535 H6        -595.7747  -412.1362   588.9611 H6            1 RES     
   16536 H6        -598.5583  -412.6264   587.7881 H6            1 RES     
   16537 H6        -598.2007  -412.2496   589.5204 H6            1 RES     
   16538 H6        -597.2300  -410.0014   588.7787 H6            1 RES     
   16539 H6        -597.6256  -410.4437   587.0826 H6            1 RES     
   16540 H6        -599.6588  -409.8490   589.3494 H6            1 RES     
   16541 H6        -599.2844  -408.8979   587.8624 H6            1 RES     
   16542 H6        -600.5670  -411.6817   588.0791 H6            1 RES     
   16543 H6        -599.9570  -411.0388   586.5453 H6            1 RES     
   16544 H6        -602.2495  -410.8169   586.7074 H6            1 RES     
   16545 H6        -602.2760  -409.2238   589.2029 H6            1 RES     
   16546 H6        -603.6195  -409.1613   587.9943 H6            1 RES     
   16547 H6        -603.8615  -411.5090   587.8885 H6            1 RES     
   16548 H6        -602.4858  -411.7629   589.0897 H6            1 RES     
   16549 H6        -605.3718  -410.9011   589.6016 H6            1 RES     
   16550 H6        -604.0830  -411.1116   590.8653 H6            1 RES     
   16551 H6        -604.8897  -413.3060   588.7834 H6            1 RES     
   16552 H6        -603.6480  -413.4496   590.0680 H6            1 RES     
   16553 H6        -605.4295  -413.3040   591.8128 H6            1 RES     
   16554 H6        -605.5340  -414.7076   590.6895 H6            1 RES     
   16555 H6        -607.2960  -413.6215   589.3502 H6            1 RES     
   16556 H6        -607.2846  -412.1939   590.4697 H6            1 RES     
   16557 H6        -607.7699  -413.8281   591.0731 H6            1 RES     
   16558 H6        -600.7534  -409.3139   585.3834 H6            1 RES     
   16559 H6        -601.5602  -408.0978   586.4132 H6            1 RES     
   16560 H6        -602.4538  -407.2100   584.7084 H6            1 RES     
   16561 H6        -602.5531  -407.9688   583.1640 H6            1 RES     
   16562 H6        -604.9420  -407.5735   585.1178 H6            1 RES     
   16563 H6        -605.3847  -408.9317   583.0832 H6            1 RES     
   16564 H6        -606.4697  -407.5292   583.3074 H6            1 RES     
   16565 H6        -605.3811  -406.2170   581.5482 H6            1 RES     
   16566 H6        -604.0740  -407.4061   581.3969 H6            1 RES     
   16567 H6        -605.5075  -407.7779   579.5395 H6            1 RES     
   16568 H6        -605.7584  -409.1454   580.6414 H6            1 RES     
   16569 H6        -607.8874  -408.1171   581.4754 H6            1 RES     
   16570 H6        -607.8798  -408.4612   579.7170 H6            1 RES     
   16571 H6        -607.5087  -405.6704   580.9975 H6            1 RES     
   16572 H6        -608.9662  -406.3159   580.1781 H6            1 RES     
   16573 H6        -607.6805  -406.5287   578.0262 H6            1 RES     
   16574 H6        -607.7313  -404.8360   578.6498 H6            1 RES     
   16575 H6        -606.2330  -405.7960   578.8319 H6            1 RES     
   16576 H6        -604.1043  -405.4113   585.2198 H6            1 RES     
   16577 H6        -605.4466  -405.3244   584.0445 H6            1 RES     
   16578 H6        -603.5368  -405.3595   582.2018 H6            1 RES     
   16579 H6        -602.3754  -405.2485   583.5320 H6            1 RES     
   16580 H6        -602.8411  -403.1265   582.4055 H6            1 RES     
   16581 H6        -604.5956  -403.2284   582.7792 H6            1 RES     
   16582 H6        -602.3342  -402.9703   584.8883 H6            1 RES     
   16583 H6        -604.1053  -403.0440   585.2126 H6            1 RES     
   16584 H6        -604.4480  -400.9207   583.9135 H6            1 RES     
   16585 H6        -603.3812  -400.7469   585.3523 H6            1 RES     
   16586 H6        -602.3894  -400.9872   582.4384 H6            1 RES     
   16587 H6        -601.3433  -400.8109   583.8923 H6            1 RES     
   16588 H6        -601.6436  -398.7064   582.6005 H6            1 RES     
   16589 H6        -603.4257  -398.7736   582.8348 H6            1 RES     
   16590 H6        -603.0887  -398.4881   585.3167 H6            1 RES     
   16591 H6        -602.3135  -397.1664   584.3835 H6            1 RES     
   16592 H6        -601.2933  -398.4888   585.0617 H6            1 RES     
   16593 C0        -599.4318  -418.0567   594.1445 C0            1 RES     
   16594 C0        -598.9263  -419.5555   594.1776 C0            1 RES     
   16595 C0        -598.4499  -419.9327   592.9675 C0            1 RES     
   16596 S1        -597.8547  -421.5013   592.9233 S1            1 RES     
   16597 C0        -598.1943  -421.7843   594.5640 C0            1 RES     
   16598 C0        -598.8481  -420.6540   595.0752 C0            1 RES     
   16599 C0        -598.6628  -418.8946   592.0287 C0            1 RES     
   16600 C0        -599.2177  -417.8717   592.6382 C0            1 RES     
   16601 C0        -599.6421  -416.8787   591.6915 C0            1 RES     
   16602 C0        -599.3708  -417.2650   590.3915 C0            1 RES     
   16603 S1        -598.5052  -418.8387   590.2530 S1            1 RES     
   16604 H2        -599.1993  -420.6459   596.0744 H2            1 RES     
   16605 H2        -600.2135  -416.0368   591.9462 H2            1 RES     
   16606 N3        -597.4357  -424.0155   597.5454 N3            1 RES     
   16607 C0        -597.8818  -422.9765   596.7849 C0            1 RES     
   16608 C0        -597.7775  -422.9872   595.3684 C0            1 RES     
   16609 C0        -597.1990  -424.1398   594.7944 C0            1 RES     
   16610 N3        -597.0220  -424.3335   593.4615 N3            1 RES     
   16611 S1        -596.3179  -425.8258   593.4055 S1            1 RES     
   16612 N3        -596.2013  -426.2715   594.9884 N3            1 RES     
   16613 C0        -596.7479  -425.2043   595.6288 C0            1 RES     
   16614 C0        -596.8708  -425.1229   597.0049 C0            1 RES     
   16615 H4        -598.2861  -422.1337   597.3060 H4            1 RES     
   16616 C5        -590.7063  -424.2562   596.4475 C5            1 RES     
   16617 C5        -591.9626  -424.2406   595.5769 C5            1 RES     
   16618 C5        -593.1262  -423.4581   596.2092 C5            1 RES     
   16619 C5        -592.8466  -421.9500   596.3449 C5            1 RES     
   16620 C5        -594.0591  -421.2195   596.9422 C5            1 RES     
   16621 C5        -593.8488  -419.6893   596.9452 C5            1 RES     
   16622 C5        -595.0494  -418.8651   597.4816 C5            1 RES     
   16623 C5        -596.3466  -419.2813   596.7860 C5            1 RES     
   16624 C5        -597.5582  -418.3197   596.8755 C5            1 RES     
   16625 C5        -598.3039  -418.1423   598.2543 C5            1 RES     
   16626 C5        -599.0981  -419.4555   598.4983 C5            1 RES     
   16627 C5        -600.0394  -419.7883   599.6619 C5            1 RES     
   16628 C5        -600.5669  -421.2262   599.3432 C5            1 RES     
   16629 C5        -601.5467  -421.8664   600.3249 C5            1 RES     
   16630 C5        -602.9251  -421.2174   600.3034 C5            1 RES     
   16631 C5        -597.4476  -417.1489   595.8881 C5            1 RES     
   16632 C0        -598.7971  -416.8746   595.1059 C0            1 RES     
   16633 C5        -598.8104  -415.3592   594.6262 C5            1 RES     
   16634 C5        -600.0368  -414.4693   595.0320 C5            1 RES     
   16635 C5        -601.2414  -414.5504   594.0503 C5            1 RES     
   16636 C5        -601.0719  -413.7571   592.7328 C5            1 RES     
   16637 C5        -602.1457  -414.0855   591.6769 C5            1 RES     
   16638 C5        -603.5607  -413.5786   591.9969 C5            1 RES     
   16639 C5        -603.6927  -412.0453   592.0755 C5            1 RES     
   16640 C5        -603.2885  -411.3374   590.7784 C5            1 RES     
   16641 C5        -599.6421  -412.9829   595.3858 C5            1 RES     
   16642 C5        -598.6705  -412.2561   594.4153 C5            1 RES     
   16643 C5        -598.5083  -410.7430   594.6836 C5            1 RES     
   16644 C5        -597.9198  -410.3804   596.0616 C5            1 RES     
   16645 C5        -597.7230  -408.8564   596.2527 C5            1 RES     
   16646 C5        -596.6431  -408.2515   595.3286 C5            1 RES     
   16647 C5        -596.4485  -406.7331   595.5027 C5            1 RES     
   16648 C5        -595.9231  -406.3295   596.8804 C5            1 RES     
   16649 H6        -590.2947  -423.2354   596.5787 H6            1 RES     
   16650 H6        -589.9269  -424.8788   595.9598 H6            1 RES     
   16651 H6        -590.9366  -424.6930   597.4426 H6            1 RES     
   16652 H6        -591.7195  -423.8206   594.5764 H6            1 RES     
   16653 H6        -592.2909  -425.2937   595.4365 H6            1 RES     
   16654 H6        -594.0126  -423.5898   595.5488 H6            1 RES     
   16655 H6        -593.3685  -423.8944   597.2022 H6            1 RES     
   16656 H6        -592.6353  -421.5439   595.3302 H6            1 RES     
   16657 H6        -591.9670  -421.7662   596.9950 H6            1 RES     
   16658 H6        -594.9330  -421.4685   596.3033 H6            1 RES     
   16659 H6        -594.2513  -421.5826   597.9744 H6            1 RES     
   16660 H6        -592.9431  -419.4284   597.5336 H6            1 RES     
   16661 H6        -593.6701  -419.3787   595.8911 H6            1 RES     
   16662 H6        -595.1716  -418.9930   598.5786 H6            1 RES     
   16663 H6        -594.8265  -417.7965   597.2727 H6            1 RES     
   16664 H6        -596.6279  -420.2833   597.1604 H6            1 RES     
   16665 H6        -596.1280  -419.4115   595.7016 H6            1 RES     
   16666 H6        -598.2705  -418.8365   596.3422 H6            1 RES     
   16667 H6        -597.5870  -417.9025   599.0675 H6            1 RES     
   16668 H6        -599.0495  -417.3204   598.1776 H6            1 RES     
   16669 H6        -599.8006  -419.4960   597.6446 H6            1 RES     
   16670 H6        -598.3489  -420.2649   598.4822 H6            1 RES     
   16671 H6        -600.8760  -419.0577   599.7029 H6            1 RES     
   16672 H6        -599.4898  -419.7847   600.6260 H6            1 RES     
   16673 H6        -601.0453  -421.2456   598.3353 H6            1 RES     
   16674 H6        -599.6872  -421.9054   599.3011 H6            1 RES     
   16675 H6        -601.1187  -421.8688   601.3478 H6            1 RES     
   16676 H6        -601.6854  -422.9248   600.0038 H6            1 RES     
   16677 H6        -603.3527  -421.2603   599.2770 H6            1 RES     
   16678 H6        -602.8712  -420.1642   600.6403 H6            1 RES     
   16679 H6        -603.6000  -421.7840   600.9801 H6            1 RES     
   16680 H6        -596.7000  -417.3479   595.0899 H6            1 RES     
   16681 H6        -597.0672  -416.2893   596.4810 H6            1 RES     
   16682 H6        -597.9922  -414.8796   595.1963 H6            1 RES     
   16683 H6        -598.4783  -415.2203   593.5782 H6            1 RES     
   16684 H6        -600.4122  -414.8885   595.9929 H6            1 RES     
   16685 H6        -601.4304  -415.6253   593.8480 H6            1 RES     
   16686 H6        -602.1454  -414.1486   594.5569 H6            1 RES     
   16687 H6        -601.0736  -412.6675   592.9261 H6            1 RES     
   16688 H6        -600.0878  -413.9967   592.2881 H6            1 RES     
   16689 H6        -601.8259  -413.6597   590.7042 H6            1 RES     
   16690 H6        -602.1976  -415.1840   591.5319 H6            1 RES     
   16691 H6        -603.9106  -414.0268   592.9504 H6            1 RES     
   16692 H6        -604.2365  -413.9392   591.1908 H6            1 RES     
   16693 H6        -603.0927  -411.6419   592.9169 H6            1 RES     
   16694 H6        -604.7590  -411.8088   592.2786 H6            1 RES     
   16695 H6        -603.8808  -411.7261   589.9225 H6            1 RES     
   16696 H6        -603.4761  -410.2480   590.8755 H6            1 RES     
   16697 H6        -602.2074  -411.4709   590.5674 H6            1 RES     
   16698 H6        -599.1261  -412.9935   596.3701 H6            1 RES     
   16699 H6        -600.5773  -412.3963   595.5171 H6            1 RES     
   16700 H6        -599.0128  -412.3264   593.3743 H6            1 RES     
   16701 H6        -597.6711  -412.7397   594.4511 H6            1 RES     
   16702 H6        -597.8337  -410.3631   593.8908 H6            1 RES     
   16703 H6        -599.4946  -410.2420   594.5655 H6            1 RES     
   16704 H6        -596.9441  -410.8924   596.2090 H6            1 RES     
   16705 H6        -598.6223  -410.7298   596.8453 H6            1 RES     
   16706 H6        -598.6913  -408.3324   596.0960 H6            1 RES     
   16707 H6        -597.4115  -408.6949   597.3079 H6            1 RES     
   16708 H6        -596.9355  -408.4060   594.2711 H6            1 RES     
   16709 H6        -595.6729  -408.7661   595.5021 H6            1 RES     
   16710 H6        -595.7040  -406.3959   594.7479 H6            1 RES     
   16711 H6        -597.4046  -406.2037   595.3012 H6            1 RES     
   16712 H6        -596.6516  -406.5795   597.6774 H6            1 RES     
   16713 H6        -595.7584  -405.2307   596.9017 H6            1 RES     
   16714 H6        -594.9556  -406.8340   597.0879 H6            1 RES     
   16715 C0        -595.9981  -428.0140   601.4683 C0            1 RES     
   16716 C0        -595.8254  -429.5424   601.0980 C0            1 RES     
   16717 C0        -595.6247  -429.6987   599.7680 C0            1 RES     
   16718 S1        -595.3917  -431.2912   599.2920 S1            1 RES     
   16719 C0        -595.5378  -431.8919   600.8748 C0            1 RES     
   16720 C0        -595.8521  -430.8189   601.7211 C0            1 RES     
   16721 C0        -595.7471  -428.4466   599.1188 C0            1 RES     
   16722 C0        -595.9744  -427.5168   600.0186 C0            1 RES     
   16723 C0        -596.3118  -426.2689   599.3933 C0            1 RES     
   16724 C0        -596.3244  -426.3767   598.0145 C0            1 RES     
   16725 S1        -595.8453  -427.9989   597.3951 S1            1 RES     
   16726 H2        -596.0419  -430.9870   602.7495 H2            1 RES     
   16727 H2        -596.6460  -425.4249   599.9188 H2            1 RES     
   16728 N3        -594.8417  -434.8648   603.1375 N3            1 RES     
   16729 C0        -595.1627  -433.6133   602.7044 C0            1 RES     
   16730 C0        -595.2735  -433.3053   601.3223 C0            1 RES     
   16731 C0        -595.0460  -434.3715   600.4256 C0            1 RES     
   16732 N3        -595.1133  -434.2709   599.0726 N3            1 RES     
   16733 S1        -594.7606  -435.8068   598.5799 S1            1 RES     
   16734 N3        -594.5094  -436.6290   599.9865 N3            1 RES     
   16735 C0        -594.7146  -435.6658   600.9235 C0            1 RES     
   16736 C0        -594.6127  -435.8933   602.2848 C0            1 RES     
   16737 H4        -595.2961  -432.8610   603.4539 H4            1 RES     
   16738 C5        -588.5569  -436.0124   600.7432 C5            1 RES     
   16739 C5        -589.8953  -435.5706   600.1516 C5            1 RES     
   16740 C5        -590.7584  -434.7694   601.1412 C5            1 RES     
   16741 C5        -590.1461  -433.4096   601.5247 C5            1 RES     
   16742 C5        -591.0725  -432.6413   602.4795 C5            1 RES     
   16743 C5        -590.5420  -431.2168   602.7535 C5            1 RES     
   16744 C5        -591.4460  -430.3465   603.6667 C5            1 RES     
   16745 C5        -592.8904  -430.3518   603.1630 C5            1 RES     
   16746 C5        -593.8417  -429.2421   603.6772 C5            1 RES     
   16747 C5        -594.3202  -429.2696   605.1801 C5            1 RES     
   16748 C5        -595.3318  -430.4431   605.2995 C5            1 RES     
   16749 C5        -596.1400  -430.8727   606.5296 C5            1 RES     
   16750 C5        -597.0037  -432.0784   606.0321 C5            1 RES     
   16751 C5        -597.9417  -432.7518   607.0323 C5            1 RES     
   16752 C5        -599.1373  -431.8853   607.4083 C5            1 RES     
   16753 C5        -593.6306  -427.9083   602.9462 C5            1 RES     
   16754 C0        -594.9906  -427.2240   602.5100 C0            1 RES     
   16755 C5        -594.7504  -425.6598   602.3605 C5            1 RES     
   16756 C5        -595.6847  -424.6912   603.1666 C5            1 RES     
   16757 C5        -597.0102  -424.3246   602.4387 C5            1 RES     
   16758 C5        -596.8716  -423.2833   601.3027 C5            1 RES     
   16759 C5        -598.1347  -423.1582   600.4282 C5            1 RES     
   16760 C5        -599.3455  -422.5022   601.1101 C5            1 RES     
   16761 C5        -599.1338  -421.0327   601.5230 C5            1 RES     
   16762 C5        -598.7837  -420.1190   600.3442 C5            1 RES     
   16763 C5        -594.9336  -423.4242   603.7331 C5            1 RES     
   16764 C5        -593.9835  -422.6694   602.7628 C5            1 RES     
   16765 C5        -593.4638  -421.3158   603.2972 C5            1 RES     
   16766 C5        -592.6145  -421.3997   604.5811 C5            1 RES     
   16767 C5        -592.0705  -420.0234   605.0370 C5            1 RES     
   16768 C5        -591.0350  -419.4150   604.0657 C5            1 RES     
   16769 C5        -590.4968  -418.0397   604.5045 C5            1 RES     
   16770 C5        -589.6997  -418.0734   605.8085 C5            1 RES     
   16771 H6        -587.9219  -435.1402   600.9980 H6            1 RES     
   16772 H6        -588.0093  -436.6278   599.9987 H6            1 RES     
   16773 H6        -588.7257  -436.6257   601.6539 H6            1 RES     
   16774 H6        -589.7186  -434.9742   599.2298 H6            1 RES     
   16775 H6        -590.4581  -436.4859   599.8654 H6            1 RES     
   16776 H6        -591.7400  -434.5831   600.6505 H6            1 RES     
   16777 H6        -590.9389  -435.3798   602.0522 H6            1 RES     
   16778 H6        -590.0051  -432.8176   600.5927 H6            1 RES     
   16779 H6        -589.1613  -433.5425   602.0175 H6            1 RES     
   16780 H6        -592.0641  -432.5743   601.9832 H6            1 RES     
   16781 H6        -591.1833  -433.1998   603.4335 H6            1 RES     
   16782 H6        -589.5248  -431.2658   603.1978 H6            1 RES     
   16783 H6        -590.4588  -430.7009   601.7705 H6            1 RES     
   16784 H6        -591.4294  -430.7078   604.7173 H6            1 RES     
   16785 H6        -591.0333  -429.3149   603.6409 H6            1 RES     
   16786 H6        -593.3209  -431.3488   603.3725 H6            1 RES     
   16787 H6        -592.8673  -430.2568   602.0535 H6            1 RES     
   16788 H6        -594.7188  -429.4845   603.1967 H6            1 RES     
   16789 H6        -593.4566  -429.3591   605.8721 H6            1 RES     
   16790 H6        -594.8760  -428.3354   605.4168 H6            1 RES     
   16791 H6        -596.1449  -430.1561   604.6064 H6            1 RES     
   16792 H6        -594.7837  -431.3438   604.9756 H6            1 RES     
   16793 H6        -596.7857  -430.0379   606.8782 H6            1 RES     
   16794 H6        -595.4662  -431.1945   607.3504 H6            1 RES     
   16795 H6        -597.6187  -431.7738   605.1524 H6            1 RES     
   16796 H6        -596.3056  -432.8715   605.6847 H6            1 RES     
   16797 H6        -597.3778  -433.0720   607.9318 H6            1 RES     
   16798 H6        -598.3493  -433.6624   606.5352 H6            1 RES     
   16799 H6        -599.7110  -431.6075   606.4962 H6            1 RES     
   16800 H6        -598.8105  -430.9684   607.9357 H6            1 RES     
   16801 H6        -599.8102  -432.4691   608.0722 H6            1 RES     
   16802 H6        -593.0691  -428.0397   601.9960 H6            1 RES     
   16803 H6        -592.9919  -427.2944   603.6174 H6            1 RES     
   16804 H6        -593.7736  -425.4804   602.8485 H6            1 RES     
   16805 H6        -594.5549  -425.3364   601.3189 H6            1 RES     
   16806 H6        -595.9948  -425.2543   604.0758 H6            1 RES     
   16807 H6        -597.4524  -425.2705   602.0619 H6            1 RES     
   16808 H6        -597.7225  -423.9027   603.1803 H6            1 RES     
   16809 H6        -596.6119  -422.2879   601.7104 H6            1 RES     
   16810 H6        -596.0382  -423.5789   600.6381 H6            1 RES     
   16811 H6        -597.8785  -422.5763   599.5196 H6            1 RES     
   16812 H6        -598.4410  -424.1643   600.0754 H6            1 RES     
   16813 H6        -599.6384  -423.0956   602.0015 H6            1 RES     
   16814 H6        -600.1943  -422.5369   600.3924 H6            1 RES     
   16815 H6        -598.3438  -420.9522   602.2978 H6            1 RES     
   16816 H6        -600.0829  -420.6682   601.9707 H6            1 RES     
   16817 H6        -599.5651  -420.1833   599.5570 H6            1 RES     
   16818 H6        -598.7177  -419.0683   600.6951 H6            1 RES     
   16819 H6        -597.7994  -420.3857   599.9070 H6            1 RES     
   16820 H6        -594.2922  -423.7585   604.5769 H6            1 RES     
   16821 H6        -595.6920  -422.7311   604.1579 H6            1 RES     
   16822 H6        -594.4827  -422.4293   601.8147 H6            1 RES     
   16823 H6        -593.1164  -423.3149   602.5069 H6            1 RES     
   16824 H6        -592.8483  -420.8826   602.4839 H6            1 RES     
   16825 H6        -594.3266  -420.6363   603.4751 H6            1 RES     
   16826 H6        -591.7599  -422.0948   604.4311 H6            1 RES     
   16827 H6        -593.2518  -421.7967   605.3971 H6            1 RES     
   16828 H6        -592.9168  -419.3160   605.1789 H6            1 RES     
   16829 H6        -591.5793  -420.1744   606.0231 H6            1 RES     
   16830 H6        -591.5065  -419.2603   603.0750 H6            1 RES     
   16831 H6        -590.1824  -420.1179   603.9413 H6            1 RES     
   16832 H6        -589.8172  -417.6686   603.7056 H6            1 RES     
   16833 H6        -591.3367  -417.3186   604.6022 H6            1 RES     
   16834 H6        -590.3389  -418.3740   606.6626 H6            1 RES     
   16835 H6        -589.3027  -417.0574   606.0210 H6            1 RES     
   16836 H6        -588.8426  -418.7741   605.7194 H6            1 RES     
   16837 C0        -593.7285  -439.8688   605.8141 C0            1 RES     
   16838 C0        -593.9430  -441.2714   605.1144 C0            1 RES     
   16839 C0        -593.9791  -441.1399   603.7672 C0            1 RES     
   16840 S1        -594.1647  -442.5893   602.9414 S1            1 RES     
   16841 C0        -594.2003  -443.5136   604.3667 C0            1 RES     
   16842 C0        -594.1496  -442.6344   605.4580 C0            1 RES     
   16843 C0        -593.9256  -439.7680   603.4223 C0            1 RES     
   16844 C0        -593.8134  -439.0536   604.5190 C0            1 RES     
   16845 C0        -593.9650  -437.6536   604.2374 C0            1 RES     
   16846 C0        -594.2038  -437.4268   602.8941 C0            1 RES     
   16847 S1        -594.1793  -438.9136   601.8773 S1            1 RES     
   16848 H2        -594.2168  -443.0061   606.4475 H2            1 RES     
   16849 H2        -594.0297  -436.9135   604.9779 H2            1 RES     
   16850 N3        -593.8292  -447.0135   605.8005 N3            1 RES     
   16851 C0        -593.9358  -445.6586   605.7010 C0            1 RES     
   16852 C0        -594.1811  -445.0166   604.4580 C0            1 RES     
   16853 C0        -594.3217  -445.8621   603.3364 C0            1 RES     
   16854 N3        -594.5650  -445.4329   602.0708 N3            1 RES     
   16855 S1        -594.6254  -446.8451   601.2176 S1            1 RES     
   16856 N3        -594.3508  -448.0088   602.3525 N3            1 RES     
   16857 C0        -594.2047  -447.2751   603.4874 C0            1 RES     
   16858 C0        -593.9538  -447.8338   604.7285 C0            1 RES     
   16859 H4        -593.7931  -445.0945   606.5993 H4            1 RES     
   16860 C5        -588.3591  -448.6417   602.0622 C5            1 RES     
   16861 C5        -589.6446  -447.8447   601.8410 C5            1 RES     
   16862 C5        -590.1606  -447.1631   603.1197 C5            1 RES     
   16863 C5        -589.2221  -446.0623   603.6472 C5            1 RES     
   16864 C5        -589.8115  -445.3927   604.8981 C5            1 RES     
   16865 C5        -588.9543  -444.1897   605.3492 C5            1 RES     
   16866 C5        -589.5064  -443.4167   606.5766 C5            1 RES     
   16867 C5        -590.9767  -443.0492   606.3691 C5            1 RES     
   16868 C5        -591.5823  -441.9445   607.2712 C5            1 RES     
   16869 C5        -591.8283  -442.2440   608.8003 C5            1 RES     
   16870 C5        -593.0383  -443.2165   608.8702 C5            1 RES     
   16871 C5        -593.7289  -443.7777   610.1188 C5            1 RES     
   16872 C5        -594.8941  -444.6603   609.5615 C5            1 RES     
   16873 C5        -595.7961  -445.3770   610.5648 C5            1 RES     
   16874 C5        -596.7098  -444.4290   611.3315 C5            1 RES     
   16875 C5        -591.2014  -440.5334   606.8003 C5            1 RES     
   16876 C0        -592.4329  -439.5379   606.7818 C0            1 RES     
   16877 C5        -591.8888  -438.0499   606.9105 C5            1 RES     
   16878 C5        -592.4649  -437.1523   608.0608 C5            1 RES     
   16879 C5        -593.7741  -436.3970   607.6909 C5            1 RES     
   16880 C5        -593.5855  -435.1565   606.7857 C5            1 RES     
   16881 C5        -594.9077  -434.6081   606.2139 C5            1 RES     
   16882 C5        -595.8360  -433.9312   607.2344 C5            1 RES     
   16883 C5        -595.2565  -432.6623   607.8893 C5            1 RES     
   16884 C5        -594.8973  -431.5706   606.8763 C5            1 RES     
   16885 C5        -591.3852  -436.2078   608.7184 C5            1 RES     
   16886 C5        -590.4497  -435.4225   607.7582 C5            1 RES     
   16887 C5        -589.5796  -434.3471   608.4471 C5            1 RES     
   16888 C5        -588.5878  -434.8811   609.4996 C5            1 RES     
   16889 C5        -587.7011  -433.7696   610.1131 C5            1 RES     
   16890 C5        -586.7145  -433.1389   609.1057 C5            1 RES     
   16891 C5        -585.8361  -432.0233   609.7036 C5            1 RES     
   16892 C5        -584.8810  -432.5048   610.7957 C5            1 RES     
   16893 H6        -587.5219  -447.9801   602.3625 H6            1 RES     
   16894 H6        -588.0718  -449.1488   601.1171 H6            1 RES     
   16895 H6        -588.5186  -449.4145   602.8441 H6            1 RES     
   16896 H6        -589.4825  -447.0869   601.0435 H6            1 RES     
   16897 H6        -590.4259  -448.5528   601.4879 H6            1 RES     
   16898 H6        -591.1412  -446.6967   602.8749 H6            1 RES     
   16899 H6        -590.3308  -447.9311   603.9048 H6            1 RES     
   16900 H6        -589.0971  -445.2999   602.8458 H6            1 RES     
   16901 H6        -588.2267  -446.4787   603.9043 H6            1 RES     
   16902 H6        -590.8280  -445.0372   604.6254 H6            1 RES     
   16903 H6        -589.8970  -446.1336   605.7216 H6            1 RES     
   16904 H6        -587.9168  -444.5202   605.5706 H6            1 RES     
   16905 H6        -588.9089  -443.4778   604.4945 H6            1 RES     
   16906 H6        -589.4124  -444.0145   607.5085 H6            1 RES     
   16907 H6        -588.8912  -442.4972   606.6825 H6            1 RES     
   16908 H6        -591.5746  -443.9762   606.4499 H6            1 RES     
   16909 H6        -591.0980  -442.6989   605.3187 H6            1 RES     
   16910 H6        -592.5520  -441.9084   606.9288 H6            1 RES     
   16911 H6        -590.9113  -442.6452   609.2807 H6            1 RES     
   16912 H6        -592.1304  -441.3104   609.3243 H6            1 RES     
   16913 H6        -593.8645  -442.6352   608.4192 H6            1 RES     
   16914 H6        -592.7493  -444.0961   608.2707 H6            1 RES     
   16915 H6        -594.1226  -442.9498   610.7473 H6            1 RES     
   16916 H6        -593.0257  -444.3981   610.7120 H6            1 RES     
   16917 H6        -595.5528  -444.0525   608.8969 H6            1 RES     
   16918 H6        -594.4407  -445.4577   608.9326 H6            1 RES     
   16919 H6        -595.1871  -445.9954   611.2549 H6            1 RES     
   16920 H6        -596.4577  -446.0576   609.9804 H6            1 RES     
   16921 H6        -597.3392  -443.8465   610.6224 H6            1 RES     
   16922 H6        -596.1204  -443.7355   611.9618 H6            1 RES     
   16923 H6        -597.3864  -445.0268   611.9791 H6            1 RES     
   16924 H6        -590.8276  -440.5316   605.7535 H6            1 RES     
   16925 H6        -590.3543  -440.2182   607.4471 H6            1 RES     
   16926 H6        -590.8351  -438.1654   607.2281 H6            1 RES     
   16927 H6        -591.7847  -437.5277   605.9388 H6            1 RES     
   16928 H6        -592.7504  -437.8520   608.8786 H6            1 RES     
   16929 H6        -594.4589  -437.1338   607.2215 H6            1 RES     
   16930 H6        -594.2622  -436.0453   608.6255 H6            1 RES     
   16931 H6        -593.0618  -434.3478   607.3298 H6            1 RES     
   16932 H6        -592.9421  -435.4270   605.9275 H6            1 RES     
   16933 H6        -594.6701  -433.8811   605.4108 H6            1 RES     
   16934 H6        -595.4706  -435.4319   605.7292 H6            1 RES     
   16935 H6        -596.1140  -434.6587   608.0256 H6            1 RES     
   16936 H6        -596.7690  -433.6453   606.7012 H6            1 RES     
   16937 H6        -594.3621  -432.9078   608.4979 H6            1 RES     
   16938 H6        -596.0291  -432.2542   608.5754 H6            1 RES     
   16939 H6        -595.7820  -431.3082   606.2574 H6            1 RES     
   16940 H6        -594.5573  -430.6616   607.4144 H6            1 RES     
   16941 H6        -594.0684  -431.8939   606.2134 H6            1 RES     
   16942 H6        -590.7126  -436.8400   609.3374 H6            1 RES     
   16943 H6        -591.9067  -435.5137   609.4129 H6            1 RES     
   16944 H6        -591.0205  -434.8805   606.9926 H6            1 RES     
   16945 H6        -589.7881  -436.1303   607.2148 H6            1 RES     
   16946 H6        -589.0128  -433.8479   607.6363 H6            1 RES     
   16947 H6        -590.2414  -433.5891   608.9217 H6            1 RES     
   16948 H6        -587.9332  -435.6592   609.0502 H6            1 RES     
   16949 H6        -589.1675  -435.3426   610.3246 H6            1 RES     
   16950 H6        -588.3461  -432.9792   610.5557 H6            1 RES     
   16951 H6        -587.1133  -434.2341   610.9349 H6            1 RES     
   16952 H6        -587.2831  -432.6732   608.2765 H6            1 RES     
   16953 H6        -586.0598  -433.9302   608.6796 H6            1 RES     
   16954 H6        -585.2186  -431.5979   608.8817 H6            1 RES     
   16955 H6        -586.4787  -431.2105   610.1054 H6            1 RES     
   16956 H6        -585.4363  -432.8830   611.6772 H6            1 RES     
   16957 H6        -584.2491  -431.6541   611.1304 H6            1 RES     
   16958 H6        -584.2162  -433.3032   610.4031 H6            1 RES     
   16959 C0        -593.4283  -452.6254   607.1382 C0            1 RES     
   16960 C0        -594.0385  -453.7617   606.2221 C0            1 RES     
   16961 C0        -594.2443  -453.3098   604.9623 C0            1 RES     
   16962 S1        -594.8551  -454.4659   603.9101 S1            1 RES     
   16963 C0        -594.8766  -455.6814   605.0973 C0            1 RES     
   16964 C0        -594.4785  -455.1095   606.3141 C0            1 RES     
   16965 C0        -593.9504  -451.9263   604.9001 C0            1 RES     
   16966 C0        -593.5274  -451.5239   606.0769 C0            1 RES     
   16967 C0        -593.4161  -450.0929   606.1206 C0            1 RES     
   16968 C0        -593.7967  -449.5153   604.9229 C0            1 RES     
   16969 S1        -594.2410  -450.6986   603.6395 S1            1 RES     
   16970 H2        -594.4767  -455.6879   607.2015 H2            1 RES     
   16971 H2        -593.2112  -449.5503   606.9946 H2            1 RES     
   16972 N3        -595.0544  -459.4310   605.6903 N3            1 RES     
   16973 C0        -594.8825  -458.0942   605.8909 C0            1 RES     
   16974 C0        -595.1657  -457.1426   604.8753 C0            1 RES     
   16975 C0        -595.6478  -457.6594   603.6534 C0            1 RES     
   16976 N3        -595.9780  -456.9060   602.5723 N3            1 RES     
   16977 S1        -596.4641  -458.0420   601.4773 S1            1 RES     
   16978 N3        -596.2800  -459.4716   602.2774 N3            1 RES     
   16979 C0        -595.8145  -459.0657   603.4883 C0            1 RES     
   16980 C0        -595.5083  -459.9383   604.5180 C0            1 RES     
   16981 H4        -594.4915  -457.7935   606.8408 H4            1 RES     
   16982 C5        -590.6721  -461.0565   600.7202 C5            1 RES     
   16983 C5        -591.7758  -460.0174   600.9166 C5            1 RES     
   16984 C5        -591.9396  -459.5795   602.3821 C5            1 RES     
   16985 C5        -590.7202  -458.8174   602.9325 C5            1 RES     
   16986 C5        -590.9615  -458.3716   604.3828 C5            1 RES     
   16987 C5        -589.8101  -457.4794   604.8963 C5            1 RES     
   16988 C5        -589.9968  -456.9358   606.3379 C5            1 RES     
   16989 C5        -591.3687  -456.2779   606.4956 C5            1 RES     
   16990 C5        -591.5841  -455.3306   607.7027 C5            1 RES     
   16991 C5        -591.6599  -455.9369   609.1571 C5            1 RES     
   16992 C5        -593.0258  -456.6708   609.2584 C5            1 RES     
   16993 C5        -593.6282  -457.3827   610.4755 C5            1 RES     
   16994 C5        -595.0243  -457.8895   609.9844 C5            1 RES     
   16995 C5        -595.9003  -458.6548   610.9748 C5            1 RES     
   16996 C5        -596.4669  -457.7711   612.0792 C5            1 RES     
   16997 C5        -590.9843  -453.9372   607.4648 C5            1 RES     
   16998 C0        -591.9635  -452.7659   607.8859 C0            1 RES     
   16999 C5        -591.1011  -451.4701   608.2080 C5            1 RES     
   17000 C5        -591.2958  -450.7849   609.6056 C5            1 RES     
   17001 C5        -592.4532  -449.7460   609.6554 C5            1 RES     
   17002 C5        -592.1397  -448.3788   609.0026 C5            1 RES     
   17003 C5        -593.3837  -447.4875   608.8190 C5            1 RES     
   17004 C5        -593.9848  -446.9206   610.1147 C5            1 RES     
   17005 C5        -593.0573  -445.9653   610.8904 C5            1 RES     
   17006 C5        -592.6268  -444.7444   610.0712 C5            1 RES     
   17007 C5        -589.9541  -450.2277   610.2220 C5            1 RES     
   17008 C5        -589.0247  -449.4131   609.2804 C5            1 RES     
   17009 C5        -587.8530  -448.7016   609.9937 C5            1 RES     
   17010 C5        -586.8538  -449.6355   610.7052 C5            1 RES     
   17011 C5        -585.6695  -448.8745   611.3503 C5            1 RES     
   17012 C5        -584.7308  -448.2054   610.3222 C5            1 RES     
   17013 C5        -583.5558  -447.4353   610.9548 C5            1 RES     
   17014 C5        -582.5750  -448.3221   611.7220 C5            1 RES     
   17015 H6        -589.6779  -460.6423   600.9824 H6            1 RES     
   17016 H6        -590.6427  -461.3668   599.6544 H6            1 RES     
   17017 H6        -590.8759  -461.9526   601.3441 H6            1 RES     
   17018 H6        -591.5752  -459.1322   600.2741 H6            1 RES     
   17019 H6        -592.7338  -460.4732   600.5835 H6            1 RES     
   17020 H6        -592.8230  -458.9040   602.4301 H6            1 RES     
   17021 H6        -592.1522  -460.4700   603.0122 H6            1 RES     
   17022 H6        -590.5549  -457.9205   602.2943 H6            1 RES     
   17023 H6        -589.8100  -459.4507   602.9036 H6            1 RES     
   17024 H6        -591.9074  -457.7891   604.3884 H6            1 RES     
   17025 H6        -591.0807  -459.2601   605.0390 H6            1 RES     
   17026 H6        -588.8461  -458.0294   604.8425 H6            1 RES     
   17027 H6        -589.7403  -456.6041   604.2118 H6            1 RES     
   17028 H6        -589.8961  -457.7447   607.0929 H6            1 RES     
   17029 H6        -589.1905  -456.1901   606.5087 H6            1 RES     
   17030 H6        -592.1322  -457.0780   606.4993 H6            1 RES     
   17031 H6        -591.5661  -455.6724   605.5818 H6            1 RES     
   17032 H6        -592.5634  -455.0449   607.5674 H6            1 RES     
   17033 H6        -590.7891  -456.5949   609.3607 H6            1 RES     
   17034 H6        -591.6746  -455.1165   609.9082 H6            1 RES     
   17035 H6        -593.7660  -455.8637   609.1023 H6            1 RES     
   17036 H6        -593.0233  -457.4195   608.4483 H6            1 RES     
   17037 H6        -593.7386  -456.6720   611.3229 H6            1 RES     
   17038 H6        -592.9941  -458.2396   610.7838 H6            1 RES     
   17039 H6        -595.6287  -457.0356   609.5964 H6            1 RES     
   17040 H6        -594.8498  -458.5815   609.1313 H6            1 RES     
   17041 H6        -595.3424  -459.5161   611.3947 H6            1 RES     
   17042 H6        -596.7710  -459.0504   610.4021 H6            1 RES     
   17043 H6        -597.0549  -456.9359   611.6378 H6            1 RES     
   17044 H6        -595.6564  -457.3614   612.7124 H6            1 RES     
   17045 H6        -597.1523  -458.3776   612.7092 H6            1 RES     
   17046 H6        -590.7776  -453.7522   606.3884 H6            1 RES     
   17047 H6        -590.0034  -453.9380   607.9874 H6            1 RES     
   17048 H6        -590.0614  -451.8404   608.2872 H6            1 RES     
   17049 H6        -591.0325  -450.7585   607.3614 H6            1 RES     
   17050 H6        -591.6002  -451.5977   610.3032 H6            1 RES     
   17051 H6        -593.3412  -450.2187   609.1862 H6            1 RES     
   17052 H6        -592.7114  -449.5466   610.7180 H6            1 RES     
   17053 H6        -591.3807  -447.8271   609.5891 H6            1 RES     
   17054 H6        -591.7029  -448.5461   608.0002 H6            1 RES     
   17055 H6        -593.1176  -446.6437   608.1504 H6            1 RES     
   17056 H6        -594.1750  -448.0609   608.2939 H6            1 RES     
   17057 H6        -594.2918  -447.7550   610.7795 H6            1 RES     
   17058 H6        -594.9035  -446.3574   609.8400 H6            1 RES     
   17059 H6        -592.1562  -446.5011   611.2532 H6            1 RES     
   17060 H6        -593.6148  -445.6031   611.7805 H6            1 RES     
   17061 H6        -593.5164  -444.1918   609.7002 H6            1 RES     
   17062 H6        -592.0247  -444.0633   610.7076 H6            1 RES     
   17063 H6        -591.9933  -445.0411   609.2099 H6            1 RES     
   17064 H6        -589.3483  -451.0966   610.5586 H6            1 RES     
   17065 H6        -590.2068  -449.6382   611.1301 H6            1 RES     
   17066 H6        -589.5732  -448.6134   608.7652 H6            1 RES     
   17067 H6        -588.6174  -450.0762   608.4877 H6            1 RES     
   17068 H6        -587.3187  -448.1312   609.2082 H6            1 RES     
   17069 H6        -588.2599  -447.9742   610.7306 H6            1 RES     
   17070 H6        -586.4544  -450.3868   609.9898 H6            1 RES     
   17071 H6        -587.3904  -450.1709   611.5146 H6            1 RES     
   17072 H6        -586.0581  -448.1115   612.0599 H6            1 RES     
   17073 H6        -585.0798  -449.6165   611.9319 H6            1 RES     
   17074 H6        -585.3027  -447.4638   609.7300 H6            1 RES     
   17075 H6        -584.3305  -448.9749   609.6264 H6            1 RES     
   17076 H6        -582.9899  -446.9418   610.1338 H6            1 RES     
   17077 H6        -583.9433  -446.6416   611.6292 H6            1 RES     
   17078 H6        -583.0619  -448.7956   612.5979 H6            1 RES     
   17079 H6        -581.7336  -447.6994   612.0952 H6            1 RES     
   17080 H6        -582.1617  -449.1080   611.0550 H6            1 RES     
   17081 C0        -595.6689  -465.1809   605.7554 C0            1 RES     
   17082 C0        -596.6364  -465.9422   604.7616 C0            1 RES     
   17083 C0        -596.9245  -465.1751   603.6836 C0            1 RES     
   17084 S1        -597.9169  -465.9228   602.5554 S1            1 RES     
   17085 C0        -598.0220  -467.3624   603.4518 C0            1 RES     
   17086 C0        -597.3356  -467.1747   604.6602 C0            1 RES     
   17087 C0        -596.3542  -463.8899   603.8491 C0            1 RES     
   17088 C0        -595.6860  -463.8591   604.9797 C0            1 RES     
   17089 C0        -595.2663  -462.5216   605.2915 C0            1 RES     
   17090 C0        -595.6872  -461.6186   604.3323 C0            1 RES     
   17091 S1        -596.5587  -462.3665   602.9444 S1            1 RES     
   17092 H2        -597.3265  -467.9385   605.3940 H2            1 RES     
   17093 H2        -594.8233  -462.2467   606.2017 H2            1 RES     
   17094 N3        -598.9074  -471.0547   603.2921 N3            1 RES     
   17095 C0        -598.4261  -469.8552   603.7239 C0            1 RES     
   17096 C0        -598.6462  -468.6551   602.9969 C0            1 RES     
   17097 C0        -599.4027  -468.7742   601.8110 C0            1 RES     
   17098 N3        -599.7202  -467.7397   600.9898 N3            1 RES     
   17099 S1        -600.5942  -468.4799   599.8006 S1            1 RES     
   17100 N3        -600.6037  -470.0681   600.2424 N3            1 RES     
   17101 C0        -599.8886  -470.0496   601.3983 C0            1 RES     
   17102 C0        -599.6273  -471.1815   602.1505 C0            1 RES     
   17103 H4        -597.8439  -469.8621   604.6220 H4            1 RES     
   17104 C5        -595.7571  -472.1946   597.3487 C5            1 RES     
   17105 C5        -596.5718  -471.0551   597.9606 C5            1 RES     
   17106 C5        -596.4199  -470.9562   599.4881 C5            1 RES     
   17107 C5        -594.9982  -470.5723   599.9376 C5            1 RES     
   17108 C5        -594.9218  -470.4486   601.4671 C5            1 RES     
   17109 C5        -593.5433  -469.9197   601.9208 C5            1 RES     
   17110 C5        -593.3945  -469.7101   603.4513 C5            1 RES     
   17111 C5        -594.5554  -468.8787   603.9999 C5            1 RES     
   17112 C5        -594.3828  -468.2227   605.3929 C5            1 RES     
   17113 C5        -594.3707  -469.1342   606.6803 C5            1 RES     
   17114 C5        -595.8316  -469.6203   606.8904 C5            1 RES     
   17115 C5        -596.3857  -470.4841   608.0295 C5            1 RES     
   17116 C5        -597.9147  -470.6073   607.7228 C5            1 RES     
   17117 C5        -598.7779  -471.4203   608.6860 C5            1 RES     
   17118 C5        -598.9730  -470.7392   610.0349 C5            1 RES     
   17119 C5        -593.5409  -466.9399   605.3330 C5            1 RES     
   17120 C0        -594.1740  -465.7493   606.1636 C0            1 RES     
   17121 C5        -593.0167  -464.7387   606.5710 C5            1 RES     
   17122 C5        -592.8518  -464.3819   608.0897 C5            1 RES     
   17123 C5        -593.7402  -463.1985   608.5711 C5            1 RES     
   17124 C5        -593.2417  -461.7920   608.1624 C5            1 RES     
   17125 C5        -594.2796  -460.6789   608.4062 C5            1 RES     
   17126 C5        -594.5476  -460.3398   609.8810 C5            1 RES     
   17127 C5        -593.3332  -459.7737   610.6422 C5            1 RES     
   17128 C5        -592.7775  -458.4881   610.0215 C5            1 RES     
   17129 C5        -591.3462  -464.2310   608.5374 C5            1 RES     
   17130 C5        -590.4136  -463.3917   607.6209 C5            1 RES     
   17131 C5        -589.0247  -463.0865   608.2257 C5            1 RES     
   17132 C5        -588.1544  -464.3228   608.5270 C5            1 RES     
   17133 C5        -586.7527  -463.9563   609.0739 C5            1 RES     
   17134 C5        -585.8551  -463.2371   608.0429 C5            1 RES     
   17135 C5        -584.4625  -462.8574   608.5815 C5            1 RES     
   17136 C5        -583.5916  -464.0586   608.9494 C5            1 RES     
   17137 H6        -594.6697  -472.0352   597.4940 H6            1 RES     
   17138 H6        -595.9523  -472.2430   596.2567 H6            1 RES     
   17139 H6        -596.0531  -473.1633   597.8045 H6            1 RES     
   17140 H6        -596.2838  -470.0919   597.4854 H6            1 RES     
   17141 H6        -597.6435  -471.2437   597.7318 H6            1 RES     
   17142 H6        -597.1216  -470.1675   599.8412 H6            1 RES     
   17143 H6        -596.7224  -471.9195   599.9526 H6            1 RES     
   17144 H6        -594.7412  -469.5926   599.4758 H6            1 RES     
   17145 H6        -594.2589  -471.3299   599.6063 H6            1 RES     
   17146 H6        -595.7099  -469.7278   601.7725 H6            1 RES     
   17147 H6        -595.1298  -471.4325   601.9392 H6            1 RES     
   17148 H6        -592.7380  -470.6013   601.5722 H6            1 RES     
   17149 H6        -593.3900  -468.9331   601.4284 H6            1 RES     
   17150 H6        -593.3586  -470.6800   603.9922 H6            1 RES     
   17151 H6        -592.4314  -469.1794   603.6124 H6            1 RES     
   17152 H6        -595.4632  -469.5104   603.9870 H6            1 RES     
   17153 H6        -594.7517  -468.0486   603.2836 H6            1 RES     
   17154 H6        -595.2874  -467.7461   605.5091 H6            1 RES     
   17155 H6        -593.6403  -469.9638   606.5748 H6            1 RES     
   17156 H6        -594.0987  -468.5262   607.5713 H6            1 RES     
   17157 H6        -596.3970  -468.6824   607.0468 H6            1 RES     
   17158 H6        -596.1088  -470.1436   605.9598 H6            1 RES     
   17159 H6        -596.2152  -469.9871   609.0090 H6            1 RES     
   17160 H6        -595.9109  -471.4871   608.0295 H6            1 RES     
   17161 H6        -598.3732  -469.5934   607.6401 H6            1 RES     
   17162 H6        -598.0200  -471.0963   606.7294 H6            1 RES     
   17163 H6        -598.3612  -472.4407   608.8068 H6            1 RES     
   17164 H6        -599.7877  -471.5098   608.2228 H6            1 RES     
   17165 H6        -599.4276  -469.7333   609.8939 H6            1 RES     
   17166 H6        -598.0093  -470.6400   610.5707 H6            1 RES     
   17167 H6        -599.6714  -471.3482   610.6478 H6            1 RES     
   17168 H6        -593.4607  -466.5437   604.2976 H6            1 RES     
   17169 H6        -592.5167  -467.2365   605.6464 H6            1 RES     
   17170 H6        -592.0801  -465.2934   606.3722 H6            1 RES     
   17171 H6        -592.9234  -463.8697   605.8899 H6            1 RES     
   17172 H6        -593.2165  -465.2709   608.6524 H6            1 RES     
   17173 H6        -594.7680  -463.3831   608.1948 H6            1 RES     
   17174 H6        -593.7899  -463.2152   609.6813 H6            1 RES     
   17175 H6        -592.3042  -461.5371   608.6922 H6            1 RES     
   17176 H6        -593.0037  -461.7902   607.0822 H6            1 RES     
   17177 H6        -593.9411  -459.7605   607.8850 H6            1 RES     
   17178 H6        -595.2438  -460.9635   607.9373 H6            1 RES     
   17179 H6        -594.9242  -461.2412   610.4084 H6            1 RES     
   17180 H6        -595.3549  -459.5756   609.9081 H6            1 RES     
   17181 H6        -592.5239  -460.5297   610.7085 H6            1 RES     
   17182 H6        -593.6627  -459.5415   611.6774 H6            1 RES     
   17183 H6        -593.5733  -457.7161   609.9485 H6            1 RES     
   17184 H6        -591.9566  -458.0939   610.6556 H6            1 RES     
   17185 H6        -592.3564  -458.6778   609.0127 H6            1 RES     
   17186 H6        -590.8971  -465.2472   608.5675 H6            1 RES     
   17187 H6        -591.3300  -463.8391   609.5778 H6            1 RES     
   17188 H6        -590.8485  -462.4092   607.3943 H6            1 RES     
   17189 H6        -590.2791  -463.9082   606.6467 H6            1 RES     
   17190 H6        -588.5029  -462.4485   607.4851 H6            1 RES     
   17191 H6        -589.1534  -462.4953   609.1593 H6            1 RES     
   17192 H6        -588.0349  -464.9406   607.6106 H6            1 RES     
   17193 H6        -588.6674  -464.9327   609.2981 H6            1 RES     
   17194 H6        -586.8601  -463.3278   609.9851 H6            1 RES     
   17195 H6        -586.2559  -464.9067   609.3682 H6            1 RES     
   17196 H6        -586.3365  -462.2878   607.7351 H6            1 RES     
   17197 H6        -585.7358  -463.8771   607.1415 H6            1 RES     
   17198 H6        -583.9319  -462.2899   607.7852 H6            1 RES     
   17199 H6        -584.5674  -462.1914   609.4649 H6            1 RES     
   17200 H6        -584.0336  -464.6339   609.7874 H6            1 RES     
   17201 H6        -582.5909  -463.6997   609.2730 H6            1 RES     
   17202 H6        -583.4589  -464.7235   608.0698 H6            1 RES     
   17203 C0        -600.7200  -476.4564   602.3023 C0            1 RES     
   17204 C0        -601.9636  -476.7783   601.3789 C0            1 RES     
   17205 C0        -602.2372  -475.7388   600.5554 C0            1 RES     
   17206 S1        -603.5219  -476.0114   599.5104 S1            1 RES     
   17207 C0        -603.7987  -477.5815   600.0982 C0            1 RES     
   17208 C0        -602.9173  -477.8094   601.1648 C0            1 RES     
   17209 C0        -601.3874  -474.6501   600.8664 C0            1 RES     
   17210 C0        -600.5685  -475.0062   601.8299 C0            1 RES     
   17211 C0        -599.8314  -473.8759   602.3209 C0            1 RES     
   17212 C0        -600.1866  -472.7115   601.6645 C0            1 RES     
   17213 S1        -601.3929  -472.9438   600.3471 S1            1 RES     
   17214 H2        -602.9633  -478.7151   601.7121 H2            1 RES     
   17215 H2        -599.2104  -473.9070   603.1657 H2            1 RES     
   17216 N3        -605.4663  -480.9164   599.3633 N3            1 RES     
   17217 C0        -604.6814  -479.9572   599.9295 C0            1 RES     
   17218 C0        -604.7449  -478.5993   599.5181 C0            1 RES     
   17219 C0        -605.6761  -478.2989   598.5005 C0            1 RES     
   17220 N3        -605.8829  -477.0598   597.9836 N3            1 RES     
   17221 S1        -607.0607  -477.3315   596.8588 S1            1 RES     
   17222 N3        -607.3440  -478.9522   596.9616 N3            1 RES     
   17223 C0        -606.4788  -479.3343   597.9379 C0            1 RES     
   17224 C0        -606.3572  -480.6402   598.3796 C0            1 RES     
   17225 H4        -603.9881  -480.2790   600.6787 H4            1 RES     
   17226 C5        -603.5456  -481.1452   592.8206 C5            1 RES     
   17227 C5        -603.9984  -480.0592   593.7963 C5            1 RES     
   17228 C5        -603.6051  -480.3542   595.2538 C5            1 RES     
   17229 C5        -602.0837  -480.3431   595.4908 C5            1 RES     
   17230 C5        -601.7576  -480.6016   596.9697 C5            1 RES     
   17231 C5        -600.2464  -480.4455   597.2484 C5            1 RES     
   17232 C5        -599.8318  -480.6348   598.7319 C5            1 RES     
   17233 C5        -600.6942  -479.7675   599.6506 C5            1 RES     
   17234 C5        -600.1815  -479.5018   601.0884 C5            1 RES     
   17235 C5        -600.1745  -480.6807   602.1366 C5            1 RES     
   17236 C5        -601.6581  -480.9392   602.5196 C5            1 RES     
   17237 C5        -602.2095  -481.9381   603.5438 C5            1 RES     
   17238 C5        -603.7577  -481.7152   603.5177 C5            1 RES     
   17239 C5        -604.6227  -482.5697   604.4426 C5            1 RES     
   17240 C5        -604.4663  -482.2051   605.9137 C5            1 RES     
   17241 C5        -599.1033  -478.4093   601.1304 C5            1 RES     
   17242 C0        -599.3376  -477.3583   602.2916 C0            1 RES     
   17243 C5        -597.9438  -476.6921   602.6665 C5            1 RES     
   17244 C5        -597.4841  -476.7408   604.1654 C5            1 RES     
   17245 C5        -598.0179  -475.5689   605.0389 C5            1 RES     
   17246 C5        -597.2964  -474.2153   604.8372 C5            1 RES     
   17247 C5        -598.0248  -473.0279   605.4970 C5            1 RES     
   17248 C5        -597.9932  -473.0073   607.0333 C5            1 RES     
   17249 C5        -596.5871  -472.8599   607.6464 C5            1 RES     
   17250 C5        -595.8675  -471.5814   607.2055 C5            1 RES     
   17251 C5        -595.9317  -476.9666   604.3372 C5            1 RES     
   17252 C5        -594.9872  -476.1103   603.4491 C5            1 RES     
   17253 C5        -593.4915  -476.2056   603.8253 C5            1 RES     
   17254 C5        -592.8706  -477.6108   603.6960 C5            1 RES     
   17255 C5        -591.3580  -477.6360   604.0267 C5            1 RES     
   17256 C5        -590.4898  -476.8611   603.0110 C5            1 RES     
   17257 C5        -588.9843  -476.8701   603.3382 C5            1 RES     
   17258 C5        -588.3457  -478.2577   603.2798 C5            1 RES     
   17259 H6        -602.4400  -481.2179   592.7839 H6            1 RES     
   17260 H6        -603.9058  -480.8980   591.7998 H6            1 RES     
   17261 H6        -603.9712  -482.1273   593.1178 H6            1 RES     
   17262 H6        -603.5847  -479.0764   593.4809 H6            1 RES     
   17263 H6        -605.1075  -479.9974   593.7439 H6            1 RES     
   17264 H6        -604.0619  -479.5616   595.8880 H6            1 RES     
   17265 H6        -604.0344  -481.3319   595.5618 H6            1 RES     
   17266 H6        -601.6944  -479.3424   595.1974 H6            1 RES     
   17267 H6        -601.5806  -481.1177   594.8766 H6            1 RES     
   17268 H6        -602.3195  -479.8475   597.5609 H6            1 RES     
   17269 H6        -602.0990  -481.6174   597.2626 H6            1 RES     
   17270 H6        -599.6658  -481.1549   596.6204 H6            1 RES     
   17271 H6        -599.9602  -479.4126   596.9470 H6            1 RES     
   17272 H6        -599.9246  -481.6963   599.0469 H6            1 RES     
   17273 H6        -598.7646  -480.3346   598.8097 H6            1 RES     
   17274 H6        -601.7077  -480.2091   599.6838 H6            1 RES     
   17275 H6        -600.8121  -478.7698   599.1695 H6            1 RES     
   17276 H6        -600.9361  -478.9157   601.4705 H6            1 RES     
   17277 H6        -599.6621  -481.5761   601.7263 H6            1 RES     
   17278 H6        -599.6503  -480.3590   603.0635 H6            1 RES     
   17279 H6        -601.9805  -479.9812   602.9692 H6            1 RES     
   17280 H6        -602.1751  -481.1696   601.5728 H6            1 RES     
   17281 H6        -601.7940  -481.7258   604.5526 H6            1 RES     
   17282 H6        -601.9654  -482.9796   603.2486 H6            1 RES     
   17283 H6        -603.9959  -480.6465   603.7326 H6            1 RES     
   17284 H6        -604.1106  -481.9280   602.4846 H6            1 RES     
   17285 H6        -604.4205  -483.6463   604.2709 H6            1 RES     
   17286 H6        -605.6854  -482.3683   604.1734 H6            1 RES     
   17287 H6        -604.7112  -481.1310   606.0703 H6            1 RES     
   17288 H6        -603.4354  -482.4064   606.2633 H6            1 RES     
   17289 H6        -605.1804  -482.8104   606.5122 H6            1 RES     
   17290 H6        -599.0941  -477.7988   600.2016 H6            1 RES     
   17291 H6        -598.1313  -478.9465   601.1744 H6            1 RES     
   17292 H6        -597.1873  -477.3388   602.1829 H6            1 RES     
   17293 H6        -597.7687  -475.7163   602.1715 H6            1 RES     
   17294 H6        -597.9430  -477.6601   604.5947 H6            1 RES     
   17295 H6        -599.1055  -475.4759   604.8373 H6            1 RES     
   17296 H6        -597.9056  -475.8399   606.1110 H6            1 RES     
   17297 H6        -596.2583  -474.2617   605.2178 H6            1 RES     
   17298 H6        -597.2256  -473.9986   603.7548 H6            1 RES     
   17299 H6        -597.5786  -472.0859   605.1186 H6            1 RES     
   17300 H6        -599.0859  -473.0196   605.1739 H6            1 RES     
   17301 H6        -598.4716  -473.9279   607.4285 H6            1 RES     
   17302 H6        -598.6055  -472.1422   607.3699 H6            1 RES     
   17303 H6        -595.9574  -473.7396   607.4009 H6            1 RES     
   17304 H6        -596.7028  -472.8263   608.7508 H6            1 RES     
   17305 H6        -596.4817  -470.6871   607.4452 H6            1 RES     
   17306 H6        -594.8968  -471.4992   607.7370 H6            1 RES     
   17307 H6        -595.6504  -471.5968   606.1175 H6            1 RES     
   17308 H6        -595.7108  -478.0233   604.0730 H6            1 RES     
   17309 H6        -595.6787  -476.8422   605.4126 H6            1 RES     
   17310 H6        -595.2306  -475.0415   603.5149 H6            1 RES     
   17311 H6        -595.1115  -476.3959   602.3828 H6            1 RES     
   17312 H6        -592.9606  -475.5114   603.1440 H6            1 RES     
   17313 H6        -593.3515  -475.8400   604.8667 H6            1 RES     
   17314 H6        -593.0226  -478.0043   602.6675 H6            1 RES     
   17315 H6        -593.3825  -478.2868   604.4106 H6            1 RES     
   17316 H6        -591.1929  -477.2331   605.0500 H6            1 RES     
   17317 H6        -591.0379  -478.7009   604.0205 H6            1 RES     
   17318 H6        -590.7972  -475.7966   603.0010 H6            1 RES     
   17319 H6        -590.6446  -477.2793   601.9924 H6            1 RES     
   17320 H6        -588.4682  -476.2316   602.5873 H6            1 RES     
   17321 H6        -588.8129  -476.4252   604.3420 H6            1 RES     
   17322 H6        -588.7716  -478.9290   604.0520 H6            1 RES     
   17323 H6        -587.2548  -478.1668   603.4715 H6            1 RES     
   17324 H6        -588.4896  -478.7073   602.2744 H6            1 RES     
   17325 C0        -608.5172  -485.5250   597.6613 C0            1 RES     
   17326 C0        -609.9234  -485.3954   596.9480 C0            1 RES     
   17327 C0        -610.0870  -484.1587   596.4213 C0            1 RES     
   17328 S1        -611.5403  -483.9459   595.6091 S1            1 RES     
   17329 C0        -612.0562  -485.5373   595.9070 C0            1 RES     
   17330 C0        -611.0963  -486.1627   596.7155 C0            1 RES     
   17331 C0        -608.9878  -483.3411   596.7785 C0            1 RES     
   17332 C0        -608.1308  -484.0536   597.4739 C0            1 RES     
   17333 C0        -607.1049  -483.2194   598.0339 C0            1 RES     
   17334 C0        -607.2960  -481.8887   597.7089 C0            1 RES     
   17335 S1        -608.7052  -481.5865   596.6283 S1            1 RES     
   17336 H2        -611.2534  -487.1500   597.0655 H2            1 RES     
   17337 H2        -606.3871  -483.5585   598.7196 H2            1 RES     
   17338 N3        -614.4878  -488.2570   594.8427 N3            1 RES     
   17339 C0        -613.4412  -487.6125   595.4310 C0            1 RES     
   17340 C0        -613.2732  -486.2062   595.3245 C0            1 RES     
   17341 C0        -614.2584  -485.5144   594.5873 C0            1 RES     
   17342 N3        -614.2697  -484.1715   594.3829 N3            1 RES     
   17343 S1        -615.6312  -483.9577   593.4738 S1            1 RES     
   17344 N3        -616.2360  -485.4810   593.2969 N3            1 RES     
   17345 C0        -615.3379  -486.2295   593.9905 C0            1 RES     
   17346 C0        -615.4344  -487.6035   594.1254 C0            1 RES     
   17347 H4        -612.7298  -488.2193   595.9517 H4            1 RES     
   17348 C5        -613.6483  -487.2578   588.1460 C5            1 RES     
   17349 C5        -613.7094  -486.3726   589.3908 C5            1 RES     
   17350 C5        -613.1773  -487.0695   590.6545 C5            1 RES     
   17351 C5        -611.6707  -487.3817   590.5923 C5            1 RES     
   17352 C5        -611.1927  -488.0371   591.8970 C5            1 RES     
   17353 C5        -609.6588  -488.2187   591.9064 C5            1 RES     
   17354 C5        -609.0798  -488.8246   593.2126 C5            1 RES     
   17355 C5        -609.5916  -488.0632   594.4366 C5            1 RES     
   17356 C5        -608.8274  -488.2406   595.7728 C5            1 RES     
   17357 C5        -608.9177  -489.6173   596.5378 C5            1 RES     
   17358 C5        -610.3490  -489.6955   597.1376 C5            1 RES     
   17359 C5        -610.9437  -490.7966   598.0234 C5            1 RES     
   17360 C5        -612.3949  -490.3063   598.3408 C5            1 RES     
   17361 C5        -613.2762  -491.1910   599.2208 C5            1 RES     
   17362 C5        -612.8301  -491.2195   600.6774 C5            1 RES     
   17363 C5        -607.5464  -487.3956   595.8285 C5            1 RES     
   17364 C0        -607.3766  -486.6262   597.2023 C0            1 RES     
   17365 C5        -605.8330  -486.3228   597.4303 C5            1 RES     
   17366 C5        -605.1780  -486.8059   598.7713 C5            1 RES     
   17367 C5        -605.3141  -485.8002   599.9509 C5            1 RES     
   17368 C5        -604.3578  -484.5853   599.8943 C5            1 RES     
   17369 C5        -604.7100  -483.4800   600.9092 C5            1 RES     
   17370 C5        -604.4483  -483.8308   602.3823 C5            1 RES     
   17371 C5        -602.9684  -484.0818   602.7310 C5            1 RES     
   17372 C5        -602.0653  -482.8815   602.4299 C5            1 RES     
   17373 C5        -603.7018  -487.3343   598.5923 C5            1 RES     
   17374 C5        -602.7379  -486.4705   597.7328 C5            1 RES     
   17375 C5        -601.2583  -486.9128   597.7876 C5            1 RES     
   17376 C5        -600.9782  -488.3334   597.2583 C5            1 RES     
   17377 C5        -599.4741  -488.7010   597.2804 C5            1 RES     
   17378 C5        -598.6201  -487.8713   596.2964 C5            1 RES     
   17379 C5        -597.1198  -488.2213   596.3198 C5            1 RES     
   17380 C5        -596.8083  -489.6450   595.8587 C5            1 RES     
   17381 H6        -612.6016  -487.5121   587.8839 H6            1 RES     
   17382 H6        -614.0940  -486.7159   587.2854 H6            1 RES     
   17383 H6        -614.2252  -488.1922   588.3132 H6            1 RES     
   17384 H6        -613.1464  -485.4311   589.2085 H6            1 RES     
   17385 H6        -614.7749  -486.1069   589.5658 H6            1 RES     
   17386 H6        -613.3554  -486.3829   591.5124 H6            1 RES     
   17387 H6        -613.7553  -488.0017   590.8336 H6            1 RES     
   17388 H6        -611.1243  -486.4240   590.4397 H6            1 RES     
   17389 H6        -611.4412  -488.0640   589.7485 H6            1 RES     
   17390 H6        -611.4868  -487.3586   592.7259 H6            1 RES     
   17391 H6        -611.6962  -489.0174   592.0370 H6            1 RES     
   17392 H6        -609.3425  -488.8490   591.0477 H6            1 RES     
   17393 H6        -609.2063  -487.2104   591.7724 H6            1 RES     
   17394 H6        -609.3497  -489.8974   593.3168 H6            1 RES     
   17395 H6        -607.9736  -488.7432   593.1437 H6            1 RES     
   17396 H6        -610.6597  -488.3155   594.5731 H6            1 RES     
   17397 H6        -609.5633  -486.9750   594.2004 H6            1 RES     
   17398 H6        -609.3743  -487.6392   596.4037 H6            1 RES     
   17399 H6        -608.6748  -490.4651   595.8633 H6            1 RES     
   17400 H6        -608.2058  -489.6219   597.3926 H6            1 RES     
   17401 H6        -610.3892  -488.8305   597.8261 H6            1 RES     
   17402 H6        -611.0373  -489.6002   596.2809 H6            1 RES     
   17403 H6        -610.3481  -490.9061   598.9555 H6            1 RES     
   17404 H6        -610.9741  -491.7643   597.4811 H6            1 RES     
   17405 H6        -612.3649  -489.2946   598.8103 H6            1 RES     
   17406 H6        -612.9338  -490.2025   597.3734 H6            1 RES     
   17407 H6        -613.3365  -492.2143   598.7981 H6            1 RES     
   17408 H6        -614.2992  -490.7485   599.2073 H6            1 RES     
   17409 H6        -612.8138  -490.1875   601.0934 H6            1 RES     
   17410 H6        -611.8258  -491.6754   600.7743 H6            1 RES     
   17411 H6        -613.5606  -491.8149   601.2658 H6            1 RES     
   17412 H6        -607.5443  -486.5933   595.0593 H6            1 RES     
   17413 H6        -606.7162  -488.0895   595.5749 H6            1 RES     
   17414 H6        -605.3120  -486.9583   596.6893 H6            1 RES     
   17415 H6        -605.5284  -485.3036   597.1201 H6            1 RES     
   17416 H6        -605.7542  -487.7058   599.0844 H6            1 RES     
   17417 H6        -606.3742  -485.4731   599.9849 H6            1 RES     
   17418 H6        -605.1051  -486.3335   600.9035 H6            1 RES     
   17419 H6        -603.3091  -484.9018   600.0511 H6            1 RES     
   17420 H6        -604.4031  -484.1335   598.8856 H6            1 RES     
   17421 H6        -604.1337  -482.5681   600.6519 H6            1 RES     
   17422 H6        -605.7807  -483.2095   600.8042 H6            1 RES     
   17423 H6        -605.0486  -484.7205   602.6661 H6            1 RES     
   17424 H6        -604.8049  -482.9769   602.9990 H6            1 RES     
   17425 H6        -602.5845  -484.9743   602.1954 H6            1 RES     
   17426 H6        -602.9097  -484.2918   603.8204 H6            1 RES     
   17427 H6        -602.4320  -481.9765   602.9599 H6            1 RES     
   17428 H6        -601.0319  -483.0992   602.7706 H6            1 RES     
   17429 H6        -602.0196  -482.6758   601.3406 H6            1 RES     
   17430 H6        -603.7533  -488.3199   598.0812 H6            1 RES     
   17431 H6        -603.2721  -487.5152   599.6016 H6            1 RES     
   17432 H6        -602.7349  -485.4224   598.0602 H6            1 RES     
   17433 H6        -603.0765  -486.4684   596.6748 H6            1 RES     
   17434 H6        -600.6979  -486.1807   597.1728 H6            1 RES     
   17435 H6        -600.8912  -486.8354   598.8349 H6            1 RES     
   17436 H6        -601.3610  -488.4385   596.2199 H6            1 RES     
   17437 H6        -601.5114  -489.0595   597.9050 H6            1 RES     
   17438 H6        -599.0773  -488.5881   598.3132 H6            1 RES     
   17439 H6        -599.3934  -489.7730   596.9963 H6            1 RES     
   17440 H6        -598.6909  -486.7981   596.5624 H6            1 RES     
   17441 H6        -599.0093  -488.0019   595.2630 H6            1 RES     
   17442 H6        -596.5959  -487.5232   595.6298 H6            1 RES     
   17443 H6        -596.7109  -488.0647   597.3411 H6            1 RES     
   17444 H6        -597.2490  -490.3953   596.5453 H6            1 RES     
   17445 H6        -595.7072  -489.7948   595.8519 H6            1 RES     
   17446 H6        -597.1918  -489.8106   594.8296 H6            1 RES     
   17447 C0        -618.6702  -491.7218   592.8561 C0            1 RES     
   17448 C0        -620.1057  -491.1823   592.4674 C0            1 RES     
   17449 C0        -620.0773  -489.8469   592.2449 C0            1 RES     
   17450 S1        -621.5551  -489.1962   591.7873 S1            1 RES     
   17451 C0        -622.3495  -490.6971   591.8484 C0            1 RES     
   17452 C0        -621.4367  -491.6549   592.3131 C0            1 RES     
   17453 C0        -618.7884  -489.3431   592.5433 C0            1 RES     
   17454 C0        -618.0103  -490.3391   592.9015 C0            1 RES     
   17455 C0        -616.7586  -489.8547   593.4121 C0            1 RES     
   17456 C0        -616.7068  -488.4727   593.4075 C0            1 RES     
   17457 S1        -618.1627  -487.6804   592.7020 S1            1 RES     
   17458 H2        -621.7477  -492.6538   592.4783 H2            1 RES     
   17459 H2        -616.0367  -490.4673   593.8636 H2            1 RES     
   17460 N3        -625.4360  -492.6171   590.7396 N3            1 RES     
   17461 C0        -624.2007  -492.3243   591.2347 C0            1 RES     
   17462 C0        -623.7536  -490.9847   591.3865 C0            1 RES     
   17463 C0        -624.6661  -489.9761   591.0086 C0            1 RES     
   17464 N3        -624.4202  -488.6425   591.0879 N3            1 RES     
   17465 S1        -625.8236  -487.9838   590.5198 S1            1 RES     
   17466 N3        -626.7592  -489.2914   590.1560 N3            1 RES     
   17467 C0        -625.9495  -490.3286   590.4972 C0            1 RES     
   17468 C0        -626.3163  -491.6565   590.3656 C0            1 RES     
   17469 H4        -623.5665  -493.1524   591.4746 H4            1 RES     
   17470 C5        -625.4008  -490.2186   584.3525 C5            1 RES     
   17471 C5        -625.0868  -489.6578   585.7395 C5            1 RES     
   17472 C5        -624.5352  -490.7171   586.7088 C5            1 RES     
   17473 C5        -623.1563  -491.2644   586.2965 C5            1 RES     
   17474 C5        -622.6420  -492.2842   587.3240 C5            1 RES     
   17475 C5        -621.1983  -492.7286   587.0017 C5            1 RES     
   17476 C5        -620.5757  -493.7192   588.0213 C5            1 RES     
   17477 C5        -620.7264  -493.1928   589.4497 C5            1 RES     
   17478 C5        -619.8290  -493.8136   590.5497 C5            1 RES     
   17479 C5        -620.0974  -495.2948   591.0213 C5            1 RES     
   17480 C5        -621.4077  -495.2614   591.8559 C5            1 RES     
   17481 C5        -622.0864  -496.4198   592.5964 C5            1 RES     
   17482 C5        -623.3362  -495.7726   593.2793 C5            1 RES     
   17483 C5        -624.2463  -496.6726   594.1133 C5            1 RES     
   17484 C5        -623.6064  -497.1240   595.4203 C5            1 RES     
   17485 C5        -618.4032  -493.2437   590.5295 C5            1 RES     
   17486 C0        -617.8718  -492.8647   591.9724 C0            1 RES     
   17487 C5        -616.2827  -492.8992   591.9568 C5            1 RES     
   17488 C5        -615.5554  -493.7941   593.0203 C5            1 RES     
   17489 C5        -615.2977  -493.0896   594.3836 C5            1 RES     
   17490 C5        -614.1229  -492.0828   594.3930 C5            1 RES     
   17491 C5        -614.0770  -491.2061   595.6599 C5            1 RES     
   17492 C5        -613.6816  -491.9371   596.9526 C5            1 RES     
   17493 C5        -612.2546  -492.5189   596.9524 C5            1 RES     
   17494 C5        -611.1705  -491.4587   596.7343 C5            1 RES     
   17495 C5        -614.2692  -494.5149   592.4577 C5            1 RES     
   17496 C5        -613.2808  -493.6542   591.6232 C5            1 RES     
   17497 C5        -611.9384  -494.3489   591.3019 C5            1 RES     
   17498 C5        -612.0497  -495.6296   590.4509 C5            1 RES     
   17499 C5        -610.6725  -496.2494   590.1087 C5            1 RES     
   17500 C5        -609.8159  -495.3724   589.1689 C5            1 RES     
   17501 C5        -608.4384  -495.9751   588.8323 C5            1 RES     
   17502 C5        -608.5099  -497.2805   588.0401 C5            1 RES     
   17503 H6        -624.4832  -490.5825   583.8483 H6            1 RES     
   17504 H6        -625.8426  -489.4184   583.7221 H6            1 RES     
   17505 H6        -626.1330  -491.0500   584.4335 H6            1 RES     
   17506 H6        -624.3689  -488.8135   585.6481 H6            1 RES     
   17507 H6        -626.0331  -489.2590   586.1660 H6            1 RES     
   17508 H6        -624.4338  -490.2337   587.7064 H6            1 RES     
   17509 H6        -625.2662  -491.5491   586.8019 H6            1 RES     
   17510 H6        -622.4465  -490.4087   586.2400 H6            1 RES     
   17511 H6        -623.2051  -491.7560   585.3035 H6            1 RES     
   17512 H6        -622.6586  -491.7813   588.3143 H6            1 RES     
   17513 H6        -623.3171  -493.1660   587.3554 H6            1 RES     
   17514 H6        -621.1544  -493.1822   585.9883 H6            1 RES     
   17515 H6        -620.5656  -491.8126   586.9914 H6            1 RES     
   17516 H6        -621.0502  -494.7217   587.9548 H6            1 RES     
   17517 H6        -619.5002  -493.8187   587.7594 H6            1 RES     
   17518 H6        -621.7916  -493.2793   589.7343 H6            1 RES     
   17519 H6        -620.5014  -492.1019   589.4390 H6            1 RES     
   17520 H6        -620.1354  -493.2931   591.3828 H6            1 RES     
   17521 H6        -620.1436  -495.9872   590.1546 H6            1 RES     
   17522 H6        -619.2847  -495.6269   591.7045 H6            1 RES     
   17523 H6        -621.1600  -494.5914   592.7007 H6            1 RES     
   17524 H6        -622.1785  -494.8463   591.1849 H6            1 RES     
   17525 H6        -621.3970  -496.8501   593.3546 H6            1 RES     
   17526 H6        -622.4027  -497.2102   591.8846 H6            1 RES     
   17527 H6        -623.0216  -494.9227   593.9303 H6            1 RES     
   17528 H6        -623.9772  -495.3492   592.4751 H6            1 RES     
   17529 H6        -624.5856  -497.5394   593.5107 H6            1 RES     
   17530 H6        -625.1416  -496.0675   594.3867 H6            1 RES     
   17531 H6        -623.3088  -496.2396   596.0266 H6            1 RES     
   17532 H6        -622.7198  -497.7585   595.2278 H6            1 RES     
   17533 H6        -624.3522  -497.7047   596.0042 H6            1 RES     
   17534 H6        -618.3433  -492.2947   589.9538 H6            1 RES     
   17535 H6        -617.7872  -493.9919   589.9854 H6            1 RES     
   17536 H6        -616.0249  -493.4217   591.0161 H6            1 RES     
   17537 H6        -615.8166  -491.9050   591.8080 H6            1 RES     
   17538 H6        -616.2579  -494.6274   593.2483 H6            1 RES     
   17539 H6        -616.2465  -492.5994   594.6863 H6            1 RES     
   17540 H6        -615.0691  -493.8620   595.1495 H6            1 RES     
   17541 H6        -613.1547  -492.6061   594.2779 H6            1 RES     
   17542 H6        -614.2191  -491.4036   593.5252 H6            1 RES     
   17543 H6        -613.3636  -490.3747   595.4880 H6            1 RES     
   17544 H6        -615.0686  -490.7353   595.8197 H6            1 RES     
   17545 H6        -614.4095  -492.7494   597.1592 H6            1 RES     
   17546 H6        -613.7524  -491.2053   597.7869 H6            1 RES     
   17547 H6        -612.1537  -493.3116   596.1829 H6            1 RES     
   17548 H6        -612.0820  -492.9885   597.9443 H6            1 RES     
   17549 H6        -611.2529  -490.6556   597.4977 H6            1 RES     
   17550 H6        -610.1688  -491.9285   596.8188 H6            1 RES     
   17551 H6        -611.2434  -491.0113   595.7216 H6            1 RES     
   17552 H6        -614.6051  -495.3262   591.7763 H6            1 RES     
   17553 H6        -613.7438  -495.0027   593.3074 H6            1 RES     
   17554 H6        -613.0055  -492.7311   592.1504 H6            1 RES     
   17555 H6        -613.7636  -493.3416   590.6729 H6            1 RES     
   17556 H6        -611.3316  -493.6015   590.7532 H6            1 RES     
   17557 H6        -611.4127  -494.5881   592.2528 H6            1 RES     
   17558 H6        -612.5952  -495.4163   589.5060 H6            1 RES     
   17559 H6        -612.6242  -496.3836   591.0263 H6            1 RES     
   17560 H6        -610.1127  -496.4563   591.0471 H6            1 RES     
   17561 H6        -610.8657  -497.2203   589.6022 H6            1 RES     
   17562 H6        -609.6156  -494.3978   589.6564 H6            1 RES     
   17563 H6        -610.3723  -495.1836   588.2249 H6            1 RES     
   17564 H6        -607.8853  -495.2359   588.2114 H6            1 RES     
   17565 H6        -607.8593  -496.1397   589.7663 H6            1 RES     
   17566 H6        -608.9945  -498.0832   588.6311 H6            1 RES     
   17567 H6        -607.4796  -497.6147   587.7918 H6            1 RES     
   17568 H6        -609.0677  -497.1270   587.0920 H6            1 RES     
   17569 C0        -630.5086  -494.7233   588.9296 C0            1 RES     
   17570 C0        -631.8370  -493.8641   588.9417 C0            1 RES     
   17571 C0        -631.5570  -492.5403   588.9945 C0            1 RES     
   17572 S1        -632.9127  -491.5511   588.9711 S1            1 RES     
   17573 C0        -633.9914  -492.8606   588.8768 C0            1 RES     
   17574 C0        -633.2460  -494.0459   588.9528 C0            1 RES     
   17575 C0        -630.1606  -492.3555   589.1361 C0            1 RES     
   17576 C0        -629.5692  -493.5285   589.1280 C0            1 RES     
   17577 C0        -628.1816  -493.4062   589.4767 C0            1 RES     
   17578 C0        -627.8369  -492.0936   589.7436 C0            1 RES     
   17579 S1        -629.1776  -490.9142   589.5068 S1            1 RES     
   17580 H2        -633.7354  -494.9852   588.9678 H2            1 RES     
   17581 H2        -627.5486  -494.2252   589.6469 H2            1 RES     
   17582 N3        -637.5460  -493.8912   588.0137 N3            1 RES     
   17583 C0        -636.2175  -493.9454   588.3116 C0            1 RES     
   17584 C0        -635.4770  -492.7798   588.6442 C0            1 RES     
   17585 C0        -636.1985  -491.5666   588.6618 C0            1 RES     
   17586 N3        -635.6643  -490.3542   588.9621 N3            1 RES     
   17587 S1        -636.9627  -489.3442   588.8201 S1            1 RES     
   17588 N3        -638.1994  -490.3433   588.3842 N3            1 RES     
   17589 C0        -637.5887  -491.5571   588.3453 C0            1 RES     
   17590 C0        -638.2461  -492.7304   588.0191 C0            1 RES     
   17591 H4        -635.7465  -494.9046   588.2517 H4            1 RES     
   17592 C5        -637.9429  -490.0884   582.3630 C5            1 RES     
   17593 C5        -637.3150  -489.9371   583.7485 C5            1 RES     
   17594 C5        -636.8656  -491.2760   584.3577 C5            1 RES     
   17595 C5        -635.7118  -491.9424   583.5859 C5            1 RES     
   17596 C5        -635.2814  -493.2510   584.2661 C5            1 RES     
   17597 C5        -634.0297  -493.8518   583.5892 C5            1 RES     
   17598 C5        -633.4896  -495.1495   584.2470 C5            1 RES     
   17599 C5        -633.3117  -494.9595   585.7544 C5            1 RES     
   17600 C5        -632.4153  -495.9711   586.5120 C5            1 RES     
   17601 C5        -632.9213  -497.4514   586.7148 C5            1 RES     
   17602 C5        -634.0563  -497.3883   587.7743 C5            1 RES     
   17603 C5        -634.8499  -498.5522   588.3797 C5            1 RES     
   17604 C5        -635.8176  -497.8772   589.4069 C5            1 RES     
   17605 C5        -636.7656  -498.7758   590.1990 C5            1 RES     
   17606 C5        -636.0511  -499.6296   591.2392 C5            1 RES     
   17607 C5        -630.9197  -495.6715   586.3349 C5            1 RES     
   17608 C0        -630.1124  -495.7451   587.6954 C0            1 RES     
   17609 C5        -628.5875  -496.0527   587.3685 C5            1 RES     
   17610 C5        -627.9194  -497.2877   588.0678 C5            1 RES     
   17611 C5        -627.3186  -496.9836   589.4706 C5            1 RES     
   17612 C5        -625.9676  -496.2295   589.4592 C5            1 RES     
   17613 C5        -625.5487  -495.7010   590.8452 C5            1 RES     
   17614 C5        -625.1322  -496.7757   591.8616 C5            1 RES     
   17615 C5        -623.8786  -497.5814   591.4691 C5            1 RES     
   17616 C5        -622.6374  -496.7064   591.2675 C5            1 RES     
   17617 C5        -626.9145  -498.0680   587.1342 C5            1 RES     
   17618 C5        -625.8993  -497.2205   586.3186 C5            1 RES     
   17619 C5        -624.7989  -498.0430   585.6111 C5            1 RES     
   17620 C5        -625.3057  -499.0450   584.5547 C5            1 RES     
   17621 C5        -624.1588  -499.7970   583.8358 C5            1 RES     
   17622 C5        -623.2830  -498.8859   582.9476 C5            1 RES     
   17623 C5        -622.1314  -499.6229   582.2375 C5            1 RES     
   17624 C5        -622.5964  -500.6695   581.2249 C5            1 RES     
   17625 H6        -637.2090  -490.4771   581.6287 H6            1 RES     
   17626 H6        -638.2916  -489.0967   582.0054 H6            1 RES     
   17627 H6        -638.8156  -490.7739   582.4121 H6            1 RES     
   17628 H6        -636.4548  -489.2344   583.6948 H6            1 RES     
   17629 H6        -638.0806  -489.4916   584.4208 H6            1 RES     
   17630 H6        -636.5170  -491.0689   585.3944 H6            1 RES     
   17631 H6        -637.7355  -491.9651   584.4180 H6            1 RES     
   17632 H6        -634.8519  -491.2358   583.5696 H6            1 RES     
   17633 H6        -636.0106  -492.1678   582.5418 H6            1 RES     
   17634 H6        -635.0437  -493.0029   585.3224 H6            1 RES     
   17635 H6        -636.1171  -493.9828   584.2463 H6            1 RES     
   17636 H6        -634.2340  -494.0522   582.5155 H6            1 RES     
   17637 H6        -633.2245  -493.0850   583.6443 H6            1 RES     
   17638 H6        -634.1719  -496.0085   584.0701 H6            1 RES     
   17639 H6        -632.5110  -495.3708   583.7689 H6            1 RES     
   17640 H6        -634.3168  -494.9232   586.2145 H6            1 RES     
   17641 H6        -632.8629  -493.9541   585.9230 H6            1 RES     
   17642 H6        -632.4769  -495.6180   587.4765 H6            1 RES     
   17643 H6        -633.2420  -497.8989   585.7506 H6            1 RES     
   17644 H6        -632.1066  -498.0733   587.1471 H6            1 RES     
   17645 H6        -633.5491  -496.9922   588.6742 H6            1 RES     
   17646 H6        -634.8110  -496.6973   587.3625 H6            1 RES     
   17647 H6        -634.1641  -499.2641   588.8878 H6            1 RES     
   17648 H6        -635.4294  -499.0829   587.5961 H6            1 RES     
   17649 H6        -635.2360  -497.2748   590.1445 H6            1 RES     
   17650 H6        -636.4649  -497.1693   588.8439 H6            1 RES     
   17651 H6        -637.3674  -499.4014   589.5092 H6            1 RES     
   17652 H6        -637.4605  -498.1058   590.7564 H6            1 RES     
   17653 H6        -635.4851  -498.9808   591.9442 H6            1 RES     
   17654 H6        -635.3589  -500.3454   590.7551 H6            1 RES     
   17655 H6        -636.8091  -500.1927   591.8247 H6            1 RES     
   17656 H6        -630.7441  -494.6385   585.9639 H6            1 RES     
   17657 H6        -630.5650  -496.3649   585.5421 H6            1 RES     
   17658 H6        -628.5892  -496.3735   586.3095 H6            1 RES     
   17659 H6        -627.9470  -495.1491   587.3385 H6            1 RES     
   17660 H6        -628.7422  -498.0151   588.2520 H6            1 RES     
   17661 H6        -628.0853  -496.4210   590.0431 H6            1 RES     
   17662 H6        -627.1498  -497.9435   590.0049 H6            1 RES     
   17663 H6        -625.1615  -496.8717   589.0564 H6            1 RES     
   17664 H6        -626.0435  -495.3576   588.7828 H6            1 RES     
   17665 H6        -624.7076  -494.9906   590.7124 H6            1 RES     
   17666 H6        -626.3821  -495.1154   591.2847 H6            1 RES     
   17667 H6        -625.9782  -497.4734   592.0342 H6            1 RES     
   17668 H6        -624.9210  -496.2622   592.8251 H6            1 RES     
   17669 H6        -624.0643  -498.1737   590.5496 H6            1 RES     
   17670 H6        -623.6657  -498.2959   592.2927 H6            1 RES     
   17671 H6        -622.4326  -496.1060   592.1797 H6            1 RES     
   17672 H6        -621.7580  -497.3508   591.0608 H6            1 RES     
   17673 H6        -622.7617  -496.0256   590.4002 H6            1 RES     
   17674 H6        -627.5128  -498.6224   586.3793 H6            1 RES     
   17675 H6        -626.3859  -498.8279   587.7498 H6            1 RES     
   17676 H6        -625.3583  -496.5119   586.9597 H6            1 RES     
   17677 H6        -626.4391  -496.6115   585.5624 H6            1 RES     
   17678 H6        -624.1343  -497.3048   585.1200 H6            1 RES     
   17679 H6        -624.2019  -498.5894   586.3744 H6            1 RES     
   17680 H6        -625.9265  -498.5212   583.7956 H6            1 RES     
   17681 H6        -625.9367  -499.8014   585.0639 H6            1 RES     
   17682 H6        -623.5239  -500.3157   584.5872 H6            1 RES     
   17683 H6        -624.6276  -500.5706   583.1890 H6            1 RES     
   17684 H6        -622.8093  -498.1056   583.5756 H6            1 RES     
   17685 H6        -623.9194  -498.3838   582.1865 H6            1 RES     
   17686 H6        -621.5309  -498.8661   581.6856 H6            1 RES     
   17687 H6        -621.4693  -500.1035   582.9895 H6            1 RES     
   17688 H6        -623.1485  -501.4920   581.7219 H6            1 RES     
   17689 H6        -621.7095  -501.1103   580.7208 H6            1 RES     
   17690 H6        -623.2422  -500.2000   580.4529 H6            1 RES     
   17691 C0        -643.1619  -494.5854   586.8207 C0            1 RES     
   17692 C0        -644.2593  -493.5347   587.2621 C0            1 RES     
   17693 C0        -643.6983  -492.3315   587.5284 C0            1 RES     
   17694 S1        -644.7995  -491.1434   587.9675 S1            1 RES     
   17695 C0        -646.1349  -492.1832   587.8174 C0            1 RES     
   17696 C0        -645.6572  -493.4643   587.5061 C0            1 RES     
   17697 C0        -642.2894  -492.4330   587.4341 C0            1 RES     
   17698 C0        -641.9702  -493.6554   587.0741 C0            1 RES     
   17699 C0        -640.5525  -493.8643   587.1674 C0            1 RES     
   17700 C0        -639.8998  -492.7341   587.6247 C0            1 RES     
   17701 S1        -640.9774  -491.3161   587.8947 S1            1 RES     
   17702 H2        -646.3283  -494.2796   587.4232 H2            1 RES     
   17703 H2        -640.0912  -494.7981   587.0427 H2            1 RES     
   17704 N3        -649.9152  -492.3404   587.4611 N3            1 RES     
   17705 C0        -648.5999  -492.6956   587.4811 C0            1 RES     
   17706 C0        -647.5867  -491.7906   587.8956 C0            1 RES     
   17707 C0        -648.0215  -490.5093   588.2978 C0            1 RES     
   17708 N3        -647.2022  -489.5158   588.7304 N3            1 RES     
   17709 S1        -648.2611  -488.2897   589.0488 S1            1 RES     
   17710 N3        -649.7333  -488.9242   588.6642 N3            1 RES     
   17711 C0        -649.4087  -490.1816   588.2627 C0            1 RES     
   17712 C0        -650.3425  -491.1101   587.8368 C0            1 RES     
   17713 H4        -648.3589  -493.6804   587.1380 H4            1 RES     
   17714 C5        -650.3205  -487.2952   582.8861 C5            1 RES     
   17715 C5        -649.4771  -487.5897   584.1266 C5            1 RES     
   17716 C5        -649.2393  -489.0924   584.3527 C5            1 RES     
   17717 C5        -648.3816  -489.7478   583.2547 C5            1 RES     
   17718 C5        -648.1451  -491.2351   583.5588 C5            1 RES     
   17719 C5        -647.1648  -491.8675   582.5464 C5            1 RES     
   17720 C5        -646.8234  -493.3583   582.8103 C5            1 RES     
   17721 C5        -646.3883  -493.5660   584.2620 C5            1 RES     
   17722 C5        -645.6269  -494.8694   584.6114 C5            1 RES     
   17723 C5        -646.4020  -496.2433   584.6020 C5            1 RES     
   17724 C5        -647.3280  -496.2360   585.8498 C5            1 RES     
   17725 C5        -648.2537  -497.3529   586.3464 C5            1 RES     
   17726 C5        -648.8921  -496.7825   587.6557 C5            1 RES     
   17727 C5        -649.8826  -497.6633   588.4152 C5            1 RES     
   17728 C5        -649.2215  -498.8513   589.1030 C5            1 RES     
   17729 C5        -644.1448  -494.8030   584.2154 C5            1 RES     
   17730 C0        -643.1800  -495.3379   585.3517 C0            1 RES     
   17731 C5        -641.8215  -495.8211   584.6827 C5            1 RES     
   17732 C5        -641.3369  -497.2843   584.9745 C5            1 RES     
   17733 C5        -640.4846  -497.4321   586.2679 C5            1 RES     
   17734 C5        -639.0205  -496.9455   586.1512 C5            1 RES     
   17735 C5        -638.2984  -496.8430   587.5090 C5            1 RES     
   17736 C5        -637.9757  -498.1843   588.1862 C5            1 RES     
   17737 C5        -636.9953  -499.0804   587.4049 C5            1 RES     
   17738 C5        -635.6394  -498.4138   587.1512 C5            1 RES     
   17739 C5        -640.6712  -497.9839   583.7265 C5            1 RES     
   17740 C5        -639.6302  -497.1582   582.9211 C5            1 RES     
   17741 C5        -638.8479  -497.9687   581.8633 C5            1 RES     
   17742 C5        -639.7074  -498.5864   580.7424 C5            1 RES     
   17743 C5        -638.8668  -499.3350   579.6790 C5            1 RES     
   17744 C5        -637.9575  -498.4068   578.8437 C5            1 RES     
   17745 C5        -637.1078  -499.1440   577.7909 C5            1 RES     
   17746 C5        -637.9301  -499.8219   576.6950 C5            1 RES     
   17747 H6        -649.8033  -487.6206   581.9612 H6            1 RES     
   17748 H6        -650.4981  -486.2017   582.8115 H6            1 RES     
   17749 H6        -651.3025  -487.8090   582.9612 H6            1 RES     
   17750 H6        -648.5042  -487.0562   584.0530 H6            1 RES     
   17751 H6        -650.0219  -487.1897   585.0096 H6            1 RES     
   17752 H6        -648.7053  -489.2018   585.3233 H6            1 RES     
   17753 H6        -650.2177  -489.6128   584.4373 H6            1 RES     
   17754 H6        -647.4025  -489.2194   583.2178 H6            1 RES     
   17755 H6        -648.8725  -489.6628   582.2637 H6            1 RES     
   17756 H6        -647.7065  -491.2906   584.5779 H6            1 RES     
   17757 H6        -649.1114  -491.7832   583.5513 H6            1 RES     
   17758 H6        -647.5634  -491.7682   581.5140 H6            1 RES     
   17759 H6        -646.2152  -491.2889   582.6010 H6            1 RES     
   17760 H6        -647.6919  -494.0175   582.5965 H6            1 RES     
   17761 H6        -645.9962  -493.6274   582.1185 H6            1 RES     
   17762 H6        -647.2832  -493.4646   584.9040 H6            1 RES     
   17763 H6        -645.7151  -492.7239   584.5423 H6            1 RES     
   17764 H6        -645.4685  -494.7504   585.6212 H6            1 RES     
   17765 H6        -646.9496  -496.3858   583.6467 H6            1 RES     
   17766 H6        -645.6843  -497.0829   584.7341 H6            1 RES     
   17767 H6        -646.6207  -496.1601   586.6971 H6            1 RES     
   17768 H6        -647.9700  -495.3458   585.7399 H6            1 RES     
   17769 H6        -647.6685  -498.2739   586.5577 H6            1 RES     
   17770 H6        -649.0424  -497.5724   585.5973 H6            1 RES     
   17771 H6        -648.0929  -496.4841   588.3748 H6            1 RES     
   17772 H6        -649.4491  -495.8591   587.3835 H6            1 RES     
   17773 H6        -650.6994  -497.9918   587.7411 H6            1 RES     
   17774 H6        -650.3282  -497.0339   589.2201 H6            1 RES     
   17775 H6        -648.4322  -498.4980   589.8033 H6            1 RES     
   17776 H6        -648.7776  -499.5414   588.3598 H6            1 RES     
   17777 H6        -649.9873  -499.3956   589.6960 H6            1 RES     
   17778 H6        -643.8093  -493.7586   584.0358 H6            1 RES     
   17779 H6        -644.0676  -495.3393   583.2451 H6            1 RES     
   17780 H6        -642.0481  -495.8758   583.6010 H6            1 RES     
   17781 H6        -641.0143  -495.0628   584.7149 H6            1 RES     
   17782 H6        -642.2597  -497.8789   585.1611 H6            1 RES     
   17783 H6        -641.0202  -496.8963   587.0792 H6            1 RES     
   17784 H6        -640.4478  -498.5058   586.5531 H6            1 RES     
   17785 H6        -638.4388  -497.6046   585.4790 H6            1 RES     
   17786 H6        -639.0074  -495.9384   585.6938 H6            1 RES     
   17787 H6        -637.3539  -496.2801   587.3647 H6            1 RES     
   17788 H6        -638.9130  -496.2420   588.2101 H6            1 RES     
   17789 H6        -638.9163  -498.7438   588.3723 H6            1 RES     
   17790 H6        -637.5197  -497.9596   589.1752 H6            1 RES     
   17791 H6        -637.4369  -499.3954   586.4371 H6            1 RES     
   17792 H6        -636.8208  -499.9960   588.0093 H6            1 RES     
   17793 H6        -635.1786  -498.0927   588.1099 H6            1 RES     
   17794 H6        -634.9584  -499.1344   586.6528 H6            1 RES     
   17795 H6        -635.7421  -497.5356   586.4810 H6            1 RES     
   17796 H6        -641.4789  -498.2296   583.0037 H6            1 RES     
   17797 H6        -640.2322  -498.9489   584.0615 H6            1 RES     
   17798 H6        -638.8617  -496.7282   583.5771 H6            1 RES     
   17799 H6        -640.1330  -496.3022   582.4227 H6            1 RES     
   17800 H6        -638.1208  -497.2631   581.4145 H6            1 RES     
   17801 H6        -638.2753  -498.7767   582.3704 H6            1 RES     
   17802 H6        -640.3070  -497.7969   580.2394 H6            1 RES     
   17803 H6        -640.4032  -499.3196   581.1985 H6            1 RES     
   17804 H6        -638.2535  -500.1202   580.1730 H6            1 RES     
   17805 H6        -639.5804  -499.8383   578.9906 H6            1 RES     
   17806 H6        -637.2406  -497.8933   579.5146 H6            1 RES     
   17807 H6        -638.5772  -497.6348   578.3373 H6            1 RES     
   17808 H6        -636.4478  -498.3949   577.3000 H6            1 RES     
   17809 H6        -636.4601  -499.8977   578.2881 H6            1 RES     
   17810 H6        -638.5656  -500.6293   577.1107 H6            1 RES     
   17811 H6        -637.2423  -500.2787   575.9512 H6            1 RES     
   17812 H6        -638.5674  -499.0769   576.1734 H6            1 RES     
   17813 C0        -655.6629  -491.7369   587.2520 C0            1 RES     
   17814 C0        -656.4329  -490.6458   588.1002 C0            1 RES     
   17815 C0        -655.5946  -489.6576   588.4932 C0            1 RES     
   17816 S1        -656.3393  -488.4339   589.3678 S1            1 RES     
   17817 C0        -657.8733  -489.1579   589.2683 C0            1 RES     
   17818 C0        -657.7317  -490.3917   588.6170 C0            1 RES     
   17819 C0        -654.2698  -489.9790   588.1116 C0            1 RES     
   17820 C0        -654.2759  -491.1173   587.4559 C0            1 RES     
   17821 C0        -652.9378  -491.5873   587.2309 C0            1 RES     
   17822 C0        -651.9983  -490.7303   587.7748 C0            1 RES     
   17823 S1        -652.6961  -489.2509   588.5294 S1            1 RES     
   17824 H2        -658.5662  -491.0335   588.5003 H2            1 RES     
   17825 H2        -652.7103  -492.5307   586.8327 H2            1 RES     
   17826 N3        -661.6100  -488.5615   589.6196 N3            1 RES     
   17827 C0        -660.4127  -489.1360   589.3142 C0            1 RES     
   17828 C0        -659.1797  -488.5472   589.7018 C0            1 RES     
   17829 C0        -659.2664  -487.3423   590.4323 C0            1 RES     
   17830 N3        -658.1990  -486.6393   590.8926 N3            1 RES     
   17831 S1        -658.9125  -485.3580   591.6510 S1            1 RES     
   17832 N3        -660.5265  -485.6151   591.4351 N3            1 RES     
   17833 C0        -660.5411  -486.7780   590.7314 C0            1 RES     
   17834 C0        -661.7042  -487.4004   590.3128 C0            1 RES     
   17835 H4        -660.4412  -490.0376   588.7381 H4            1 RES     
   17836 C5        -661.5989  -482.5833   586.3319 C5            1 RES     
   17837 C5        -660.6643  -483.3070   587.3011 C5            1 RES     
   17838 C5        -660.7223  -484.8382   587.1667 C5            1 RES     
   17839 C5        -660.1963  -485.3537   585.8145 C5            1 RES     
   17840 C5        -660.2408  -486.8884   585.7584 C5            1 RES     
   17841 C5        -659.5788  -487.4238   584.4697 C5            1 RES     
   17842 C5        -659.5287  -488.9707   584.3540 C5            1 RES     
   17843 C5        -658.9386  -489.5901   585.6220 C5            1 RES     
   17844 C5        -658.4303  -491.0519   585.5461 C5            1 RES     
   17845 C5        -659.4737  -492.2266   585.4061 C5            1 RES     
   17846 C5        -660.1820  -492.3539   586.7834 C5            1 RES     
   17847 C5        -661.2413  -493.3769   587.2104 C5            1 RES     
   17848 C5        -661.5426  -493.0312   588.7060 C5            1 RES     
   17849 C5        -662.5751  -493.8797   589.4460 C5            1 RES     
   17850 C5        -662.0890  -495.2940   589.7377 C5            1 RES     
   17851 C5        -657.0433  -491.1538   584.8951 C5            1 RES     
   17852 C0        -656.0581  -492.1038   585.6920 C0            1 RES     
   17853 C5        -654.9484  -492.6445   584.6906 C5            1 RES     
   17854 C5        -654.7500  -494.1966   584.5800 C5            1 RES     
   17855 C5        -653.7674  -494.7944   585.6282 C5            1 RES     
   17856 C5        -652.2669  -494.5581   585.3342 C5            1 RES     
   17857 C5        -651.3471  -494.9092   586.5201 C5            1 RES     
   17858 C5        -651.2221  -496.4081   586.8353 C5            1 RES     
   17859 C5        -650.5823  -497.2503   585.7147 C5            1 RES     
   17860 C5        -649.1680  -496.7906   585.3467 C5            1 RES     
   17861 C5        -654.4409  -494.6852   583.1116 C5            1 RES     
   17862 C5        -653.3782  -493.8873   582.3068 C5            1 RES     
   17863 C5        -652.9522  -494.5474   580.9761 C5            1 RES     
   17864 C5        -654.0798  -494.7207   579.9392 C5            1 RES     
   17865 C5        -653.5850  -495.3306   578.6046 C5            1 RES     
   17866 C5        -652.6320  -494.4046   577.8171 C5            1 RES     
   17867 C5        -652.1245  -495.0076   576.4932 C5            1 RES     
   17868 C5        -653.2253  -495.2510   575.4608 C5            1 RES     
   17869 H6        -661.3056  -482.7651   585.2785 H6            1 RES     
   17870 H6        -661.5478  -481.4896   586.5169 H6            1 RES     
   17871 H6        -662.6459  -482.9200   586.4878 H6            1 RES     
   17872 H6        -659.6216  -482.9502   587.1524 H6            1 RES     
   17873 H6        -660.9744  -483.0392   588.3348 H6            1 RES     
   17874 H6        -660.0866  -485.2667   587.9738 H6            1 RES     
   17875 H6        -661.7658  -485.1841   587.3298 H6            1 RES     
   17876 H6        -659.1434  -485.0115   585.6988 H6            1 RES     
   17877 H6        -660.7985  -484.9511   584.9746 H6            1 RES     
   17878 H6        -659.6786  -487.2603   586.6414 H6            1 RES     
   17879 H6        -661.2922  -487.2411   585.8250 H6            1 RES     
   17880 H6        -660.0950  -487.0139   583.5752 H6            1 RES     
   17881 H6        -658.5301  -487.0502   584.4576 H6            1 RES     
   17882 H6        -660.5399  -489.3977   584.1813 H6            1 RES     
   17883 H6        -658.8897  -489.2083   583.4763 H6            1 RES     
   17884 H6        -659.6862  -489.4891   586.4307 H6            1 RES     
   17885 H6        -658.0672  -488.9701   585.9334 H6            1 RES     
   17886 H6        -658.1028  -491.2057   586.5094 H6            1 RES     
   17887 H6        -660.1741  -492.0399   584.5651 H6            1 RES     
   17888 H6        -658.9406  -493.1859   585.2244 H6            1 RES     
   17889 H6        -659.3577  -492.6065   587.4765 H6            1 RES     
   17890 H6        -660.6281  -491.3648   586.9822 H6            1 RES     
   17891 H6        -660.8418  -494.4096   587.1136 H6            1 RES     
   17892 H6        -662.1605  -493.2706   586.5979 H6            1 RES     
   17893 H6        -660.6008  -493.0568   589.3039 H6            1 RES     
   17894 H6        -661.9233  -491.9867   588.7396 H6            1 RES     
   17895 H6        -663.5337  -493.8904   588.8887 H6            1 RES     
   17896 H6        -662.7520  -493.3915   590.4324 H6            1 RES     
   17897 H6        -661.1478  -495.2609   590.3305 H6            1 RES     
   17898 H6        -661.9175  -495.8545   588.7985 H6            1 RES     
   17899 H6        -662.8573  -495.8208   590.3432 H6            1 RES     
   17900 H6        -656.5227  -490.1721   584.8707 H6            1 RES     
   17901 H6        -657.2267  -491.4493   583.8395 H6            1 RES     
   17902 H6        -655.3386  -492.4001   583.6844 H6            1 RES     
   17903 H6        -654.0020  -492.0689   584.7210 H6            1 RES     
   17904 H6        -655.7406  -494.6475   584.8152 H6            1 RES     
   17905 H6        -654.0504  -494.3814   586.6189 H6            1 RES     
   17906 H6        -653.9193  -495.8944   585.6764 H6            1 RES     
   17907 H6        -651.9453  -495.1300   584.4431 H6            1 RES     
   17908 H6        -652.1066  -493.4895   585.0975 H6            1 RES     
   17909 H6        -650.3360  -494.5024   586.3149 H6            1 RES     
   17910 H6        -651.7087  -494.3938   587.4334 H6            1 RES     
   17911 H6        -652.2225  -496.8222   587.0806 H6            1 RES     
   17912 H6        -650.5877  -496.5082   587.7431 H6            1 RES     
   17913 H6        -651.2190  -497.2441   584.8062 H6            1 RES     
   17914 H6        -650.5201  -498.2994   586.0751 H6            1 RES     
   17915 H6        -648.5128  -496.7923   586.2440 H6            1 RES     
   17916 H6        -648.7380  -497.4800   584.5908 H6            1 RES     
   17917 H6        -649.1784  -495.7743   584.9016 H6            1 RES     
   17918 H6        -655.3802  -494.6068   582.5227 H6            1 RES     
   17919 H6        -654.1737  -495.7636   583.1526 H6            1 RES     
   17920 H6        -652.4473  -493.7668   582.8766 H6            1 RES     
   17921 H6        -653.7544  -492.8629   582.0990 H6            1 RES     
   17922 H6        -652.1656  -493.8939   580.5493 H6            1 RES     
   17923 H6        -652.4970  -495.5401   581.1886 H6            1 RES     
   17924 H6        -654.5644  -493.7420   579.7320 H6            1 RES     
   17925 H6        -654.8410  -495.4078   580.3613 H6            1 RES     
   17926 H6        -653.0876  -496.3056   578.8014 H6            1 RES     
   17927 H6        -654.4834  -495.5230   577.9781 H6            1 RES     
   17928 H6        -651.7309  -494.1989   578.4281 H6            1 RES     
   17929 H6        -653.1402  -493.4382   577.6069 H6            1 RES     
   17930 H6        -651.3995  -494.2908   576.0477 H6            1 RES     
   17931 H6        -651.5867  -495.9593   576.6928 H6            1 RES     
   17932 H6        -653.9501  -496.0099   575.8176 H6            1 RES     
   17933 H6        -652.7686  -495.6311   574.5217 H6            1 RES     
   17934 H6        -653.7586  -494.3036   575.2339 H6            1 RES     
   17935 C0        -667.0623  -486.9288   590.6447 C0            1 RES     
   17936 C0        -667.4474  -485.9529   591.8288 C0            1 RES     
   17937 C0        -666.3687  -485.2489   592.2464 C0            1 RES     
   17938 S1        -666.6971  -484.1571   593.4780 S1            1 RES     
   17939 C0        -668.3479  -484.5566   593.5295 C0            1 RES     
   17940 C0        -668.5710  -485.6055   592.6260 C0            1 RES     
   17941 C0        -665.2143  -485.6973   591.5604 C0            1 RES     
   17942 C0        -665.5604  -486.6280   590.7003 C0            1 RES     
   17943 C0        -664.4019  -487.2580   590.1319 C0            1 RES     
   17944 C0        -663.2312  -486.7329   590.6483 C0            1 RES     
   17945 S1        -663.4774  -485.3765   591.8077 S1            1 RES     
   17946 H2        -669.5312  -486.0448   592.5434 H2            1 RES     
   17947 H2        -664.4426  -488.1046   589.5139 H2            1 RES     
   17948 N3        -671.7770  -483.4159   594.7052 N3            1 RES     
   17949 C0        -670.7887  -484.1019   594.0653 C0            1 RES     
   17950 C0        -669.4149  -483.8473   594.3207 C0            1 RES     
   17951 C0        -669.1332  -482.8544   595.2838 C0            1 RES     
   17952 N3        -667.8843  -482.4790   595.6641 N3            1 RES     
   17953 S1        -668.1875  -481.3099   596.7899 S1            1 RES     
   17954 N3        -669.8329  -481.2217   596.8400 N3            1 RES     
   17955 C0        -670.1994  -482.1631   595.9305 C0            1 RES     
   17956 C0        -671.5173  -482.4546   595.6251 C0            1 RES     
   17957 H4        -671.0939  -484.8214   593.3342 H4            1 RES     
   17958 C5        -670.9743  -476.9248   592.7634 C5            1 RES     
   17959 C5        -670.0832  -478.0102   593.3672 C5            1 RES     
   17960 C5        -670.4863  -479.4311   592.9377 C5            1 RES     
   17961 C5        -670.2882  -479.6946   591.4336 C5            1 RES     
   17962 C5        -670.6675  -481.1398   591.0759 C5            1 RES     
   17963 C5        -670.3330  -481.4611   589.6026 C5            1 RES     
   17964 C5        -670.6323  -482.9204   589.1672 C5            1 RES     
   17965 C5        -670.0075  -483.9168   590.1452 C5            1 RES     
   17966 C5        -669.8402  -485.3844   589.6773 C5            1 RES     
   17967 C5        -671.1196  -486.2909   589.5040 C5            1 RES     
   17968 C5        -671.6274  -486.6156   590.9363 C5            1 RES     
   17969 C5        -672.8058  -487.5090   591.3413 C5            1 RES     
   17970 C5        -672.8019  -487.4812   592.9054 C5            1 RES     
   17971 C5        -673.8711  -488.2870   593.6413 C5            1 RES     
   17972 C5        -673.6608  -489.7926   593.5402 C5            1 RES     
   17973 C5        -668.6188  -485.5701   588.7653 C5            1 RES     
   17974 C0        -667.7528  -486.8395   589.1481 C0            1 RES     
   17975 C5        -666.9446  -487.3126   587.8637 C5            1 RES     
   17976 C5        -667.1010  -488.8041   587.4035 C5            1 RES     
   17977 C5        -666.1251  -489.7963   588.0996 C5            1 RES     
   17978 C5        -664.6690  -489.7634   587.5775 C5            1 RES     
   17979 C5        -663.6807  -490.5416   588.4681 C5            1 RES     
   17980 C5        -663.8337  -492.0705   588.4418 C5            1 RES     
   17981 C5        -663.5613  -492.7211   587.0716 C5            1 RES     
   17982 C5        -662.1517  -492.4421   586.5405 C5            1 RES     
   17983 C5        -667.1239  -488.9762   585.8350 C5            1 RES     
   17984 C5        -666.0460  -488.2087   585.0207 C5            1 RES     
   17985 C5        -665.9722  -488.5979   583.5271 C5            1 RES     
   17986 C5        -667.2513  -488.3197   582.7127 C5            1 RES     
   17987 C5        -667.1009  -488.6721   581.2123 C5            1 RES     
   17988 C5        -666.0991  -487.7671   580.4618 C5            1 RES     
   17989 C5        -665.9334  -488.1176   578.9707 C5            1 RES     
   17990 C5        -667.2009  -487.9122   578.1412 C5            1 RES     
   17991 H6        -670.8855  -476.8996   591.6587 H6            1 RES     
   17992 H6        -670.6639  -475.9328   593.1538 H6            1 RES     
   17993 H6        -672.0342  -477.1003   593.0454 H6            1 RES     
   17994 H6        -669.0221  -477.8165   593.0970 H6            1 RES     
   17995 H6        -670.1728  -477.9456   594.4737 H6            1 RES     
   17996 H6        -669.8449  -480.1436   593.5034 H6            1 RES     
   17997 H6        -671.5439  -479.6176   593.2241 H6            1 RES     
   17998 H6        -669.2154  -479.5245   591.1902 H6            1 RES     
   17999 H6        -670.9078  -479.0049   590.8248 H6            1 RES     
   18000 H6        -670.0736  -481.8033   591.7401 H6            1 RES     
   18001 H6        -671.7483  -481.3085   591.2698 H6            1 RES     
   18002 H6        -670.8760  -480.7666   588.9263 H6            1 RES     
   18003 H6        -669.2423  -481.2849   589.4658 H6            1 RES     
   18004 H6        -671.7255  -483.1103   589.1085 H6            1 RES     
   18005 H6        -670.1956  -483.0509   588.1535 H6            1 RES     
   18006 H6        -670.5884  -483.8815   591.0857 H6            1 RES     
   18007 H6        -668.9875  -483.5509   590.4032 H6            1 RES     
   18008 H6        -669.4146  -485.8176   590.5080 H6            1 RES     
   18009 H6        -671.8802  -485.7901   588.8690 H6            1 RES     
   18010 H6        -670.8366  -487.2576   589.0320 H6            1 RES     
   18011 H6        -670.7829  -487.1660   591.3922 H6            1 RES     
   18012 H6        -671.8173  -485.6397   591.4141 H6            1 RES     
   18013 H6        -672.6550  -488.5427   590.9615 H6            1 RES     
   18014 H6        -673.7612  -487.1010   590.9513 H6            1 RES     
   18015 H6        -671.8097  -487.8126   593.2935 H6            1 RES     
   18016 H6        -672.9415  -486.4245   593.2233 H6            1 RES     
   18017 H6        -674.8813  -487.9969   593.2880 H6            1 RES     
   18018 H6        -673.7918  -488.0238   594.7216 H6            1 RES     
   18019 H6        -672.6573  -490.0667   593.9355 H6            1 RES     
   18020 H6        -673.7537  -490.1351   592.4915 H6            1 RES     
   18021 H6        -674.4258  -490.3053   594.1617 H6            1 RES     
   18022 H6        -667.9098  -484.7174   588.8419 H6            1 RES     
   18023 H6        -669.0150  -485.5695   587.7269 H6            1 RES     
   18024 H6        -667.4178  -486.7717   587.0223 H6            1 RES     
   18025 H6        -665.9032  -486.9356   587.8284 H6            1 RES     
   18026 H6        -668.1192  -489.1173   587.7277 H6            1 RES     
   18027 H6        -666.1638  -489.5874   589.1891 H6            1 RES     
   18028 H6        -666.4997  -490.8321   587.9512 H6            1 RES     
   18029 H6        -664.6123  -490.1545   586.5439 H6            1 RES     
   18030 H6        -664.3208  -488.7142   587.5370 H6            1 RES     
   18031 H6        -662.6477  -490.2813   588.1599 H6            1 RES     
   18032 H6        -663.7848  -490.2029   589.5193 H6            1 RES     
   18033 H6        -664.8520  -492.3493   588.7849 H6            1 RES     
   18034 H6        -663.1084  -492.4929   589.1712 H6            1 RES     
   18035 H6        -664.3091  -492.3878   586.3229 H6            1 RES     
   18036 H6        -663.6723  -493.8199   587.1922 H6            1 RES     
   18037 H6        -661.3869  -492.7716   587.2759 H6            1 RES     
   18038 H6        -661.9954  -492.9965   585.5920 H6            1 RES     
   18039 H6        -662.0104  -491.3635   586.3221 H6            1 RES     
   18040 H6        -668.1011  -488.5969   585.4658 H6            1 RES     
   18041 H6        -667.0902  -490.0631   585.6036 H6            1 RES     
   18042 H6        -665.0371  -488.3920   585.4137 H6            1 RES     
   18043 H6        -666.2210  -487.1147   585.1019 H6            1 RES     
   18044 H6        -665.1360  -488.0099   583.0994 H6            1 RES     
   18045 H6        -665.7134  -489.6765   583.4418 H6            1 RES     
   18046 H6        -667.5407  -487.2505   582.8059 H6            1 RES     
   18047 H6        -668.0708  -488.9432   583.1241 H6            1 RES     
   18048 H6        -666.7999  -489.7375   581.1073 H6            1 RES     
   18049 H6        -668.1021  -488.5498   580.7440 H6            1 RES     
   18050 H6        -665.0947  -487.8735   580.9174 H6            1 RES     
   18051 H6        -666.4143  -486.7048   580.5542 H6            1 RES     
   18052 H6        -665.1460  -487.4539   578.5497 H6            1 RES     
   18053 H6        -665.5879  -489.1686   578.8654 H6            1 RES     
   18054 H6        -668.0103  -488.5951   578.4683 H6            1 RES     
   18055 H6        -666.9798  -488.1323   577.0746 H6            1 RES     
   18056 H6        -667.5469  -486.8597   578.2185 H6            1 RES     
   18057 C0        -676.5417  -481.1446   597.0679 C0            1 RES     
   18058 C0        -676.5302  -480.4260   598.4773 C0            1 RES     
   18059 C0        -675.2764  -480.0415   598.8144 C0            1 RES     
   18060 S1        -675.1782  -479.2333   600.2822 S1            1 RES     
   18061 C0        -676.8501  -479.3382   600.5670 C0            1 RES     
   18062 C0        -677.4232  -480.0867   599.5289 C0            1 RES     
   18063 C0        -674.3588  -480.5091   597.8431 C0            1 RES     
   18064 C0        -675.0189  -481.1335   596.8943 C0            1 RES     
   18065 C0        -674.1187  -481.8033   595.9981 C0            1 RES     
   18066 C0        -672.7998  -481.6291   596.3761 C0            1 RES     
   18067 S1        -672.5764  -480.5655   597.8125 S1            1 RES     
   18068 H2        -678.4566  -480.3187   599.5445 H2            1 RES     
   18069 H2        -674.4302  -482.4582   595.2403 H2            1 RES     
   18070 N3        -679.7441  -477.9272   602.5860 N3            1 RES     
   18071 C0        -679.0308  -478.6037   601.6424 C0            1 RES     
   18072 C0        -677.6121  -478.6616   601.6758 C0            1 RES     
   18073 C0        -676.9856  -477.9911   602.7485 C0            1 RES     
   18074 N3        -675.6432  -477.9414   602.9503 N3            1 RES     
   18075 S1        -675.5199  -477.0388   604.3273 S1            1 RES     
   18076 N3        -677.0825  -476.6783   604.7091 N3            1 RES     
   18077 C0        -677.7720  -477.2975   603.7146 C0            1 RES     
   18078 C0        -679.1521  -477.2727   603.6150 C0            1 RES     
   18079 H4        -679.5874  -479.0641   600.8526 H4            1 RES     
   18080 C5        -677.8686  -471.4045   601.8888 C5            1 RES     
   18081 C5        -677.1509  -472.7410   602.0766 C5            1 RES     
   18082 C5        -677.9073  -473.9260   601.4524 C5            1 RES     
   18083 C5        -677.9944  -473.8552   599.9167 C5            1 RES     
   18084 C5        -678.7223  -475.0846   599.3519 C5            1 RES     
   18085 C5        -678.6856  -475.1002   597.8079 C5            1 RES     
   18086 C5        -679.3508  -476.3386   597.1502 C5            1 RES     
   18087 C5        -678.8159  -477.6324   597.7666 C5            1 RES     
   18088 C5        -679.0371  -478.9528   596.9865 C5            1 RES     
   18089 C5        -680.4919  -479.5537   596.8811 C5            1 RES     
   18090 C5        -680.8401  -480.1153   598.2876 C5            1 RES     
   18091 C5        -682.1091  -480.8588   598.7207 C5            1 RES     
   18092 C5        -681.8684  -481.2044   600.2273 C5            1 RES     
   18093 C5        -682.9644  -481.9619   600.9750 C5            1 RES     
   18094 C5        -683.0980  -483.4133   600.5311 C5            1 RES     
   18095 C5        -678.0321  -479.1274   595.8388 C5            1 RES     
   18096 C0        -677.4105  -480.5829   595.7817 C0            1 RES     
   18097 C5        -676.9208  -480.8713   594.2972 C5            1 RES     
   18098 C5        -677.4586  -482.1597   593.5818 C5            1 RES     
   18099 C5        -676.6254  -483.4439   593.8610 C5            1 RES     
   18100 C5        -675.2894  -483.5434   593.0870 C5            1 RES     
   18101 C5        -674.3697  -484.6717   593.5940 C5            1 RES     
   18102 C5        -674.8481  -486.0994   593.2869 C5            1 RES     
   18103 C5        -674.9265  -486.4432   591.7868 C5            1 RES     
   18104 C5        -673.5841  -486.2973   591.0631 C5            1 RES     
   18105 C5        -677.7491  -481.9475   592.0453 C5            1 RES     
   18106 C5        -676.6645  -481.2095   591.2129 C5            1 RES     
   18107 C5        -676.8970  -481.2395   589.6855 C5            1 RES     
   18108 C5        -678.1930  -480.5563   589.2057 C5            1 RES     
   18109 C5        -678.3448  -480.5628   587.6646 C5            1 RES     
   18110 C5        -677.2947  -479.6953   586.9360 C5            1 RES     
   18111 C5        -677.4299  -479.7050   585.4013 C5            1 RES     
   18112 C5        -678.7325  -479.0898   584.8900 C5            1 RES     
   18113 H6        -677.9407  -471.1335   600.8163 H6            1 RES     
   18114 H6        -677.2992  -470.6037   602.4060 H6            1 RES     
   18115 H6        -678.8880  -471.4535   602.3273 H6            1 RES     
   18116 H6        -676.1247  -472.6776   601.6530 H6            1 RES     
   18117 H6        -677.0602  -472.9264   603.1693 H6            1 RES     
   18118 H6        -677.3565  -474.8535   601.7274 H6            1 RES     
   18119 H6        -678.9261  -473.9871   601.8923 H6            1 RES     
   18120 H6        -676.9581  -473.8226   599.5118 H6            1 RES     
   18121 H6        -678.5353  -472.9431   599.5915 H6            1 RES     
   18122 H6        -678.1926  -475.9803   599.7406 H6            1 RES     
   18123 H6        -679.7735  -475.1027   599.7112 H6            1 RES     
   18124 H6        -679.1614  -474.1808   597.4041 H6            1 RES     
   18125 H6        -677.6149  -475.0904   597.5031 H6            1 RES     
   18126 H6        -680.4557  -476.3147   597.2650 H6            1 RES     
   18127 H6        -679.1067  -476.2990   596.0667 H6            1 RES     
   18128 H6        -679.2304  -477.7203   598.7881 H6            1 RES     
   18129 H6        -677.7147  -477.5227   597.8929 H6            1 RES     
   18130 H6        -678.5960  -479.6386   597.6142 H6            1 RES     
   18131 H6        -681.2132  -478.7911   596.5194 H6            1 RES     
   18132 H6        -680.4949  -480.4148   596.1769 H6            1 RES     
   18133 H6        -680.0749  -480.8973   598.4512 H6            1 RES     
   18134 H6        -680.7444  -479.2631   598.9813 H6            1 RES     
   18135 H6        -682.2405  -481.7826   598.1168 H6            1 RES     
   18136 H6        -683.0021  -480.2090   598.6126 H6            1 RES     
   18137 H6        -680.9238  -481.7870   600.3420 H6            1 RES     
   18138 H6        -681.7304  -480.2459   600.7743 H6            1 RES     
   18139 H6        -683.9301  -481.4239   600.8886 H6            1 RES     
   18140 H6        -682.6721  -481.9810   602.0505 H6            1 RES     
   18141 H6        -682.1291  -483.9448   600.6622 H6            1 RES     
   18142 H6        -683.4158  -483.4751   599.4724 H6            1 RES     
   18143 H6        -683.8545  -483.9168   601.1703 H6            1 RES     
   18144 H6        -677.1539  -478.4551   595.9498 H6            1 RES     
   18145 H6        -678.5679  -478.8108   594.9180 H6            1 RES     
   18146 H6        -677.3865  -480.0718   593.6903 H6            1 RES     
   18147 H6        -675.8398  -480.6851   594.1402 H6            1 RES     
   18148 H6        -678.4609  -482.3576   594.0247 H6            1 RES     
   18149 H6        -676.4572  -483.4964   594.9569 H6            1 RES     
   18150 H6        -677.2304  -484.3328   593.5795 H6            1 RES     
   18151 H6        -675.4708  -483.6815   592.0042 H6            1 RES     
   18152 H6        -674.7349  -482.5924   593.1948 H6            1 RES     
   18153 H6        -673.3621  -484.5306   593.1529 H6            1 RES     
   18154 H6        -674.2426  -484.5795   594.6921 H6            1 RES     
   18155 H6        -675.8404  -486.2690   593.7550 H6            1 RES     
   18156 H6        -674.1302  -486.8032   593.7620 H6            1 RES     
   18157 H6        -675.6879  -485.8160   591.2792 H6            1 RES     
   18158 H6        -675.2507  -487.5023   591.7002 H6            1 RES     
   18159 H6        -672.8073  -486.9207   591.5554 H6            1 RES     
   18160 H6        -673.6918  -486.6291   590.0097 H6            1 RES     
   18161 H6        -673.2494  -485.2396   591.0458 H6            1 RES     
   18162 H6        -678.6663  -481.3263   591.9555 H6            1 RES     
   18163 H6        -677.9831  -482.9369   591.5955 H6            1 RES     
   18164 H6        -675.6714  -481.6547   591.3593 H6            1 RES     
   18165 H6        -676.5877  -480.1529   591.5471 H6            1 RES     
   18166 H6        -676.0270  -480.7225   589.2342 H6            1 RES     
   18167 H6        -676.8902  -482.2951   589.3344 H6            1 RES     
   18168 H6        -678.2302  -479.5061   589.5684 H6            1 RES     
   18169 H6        -679.0569  -481.1062   589.6311 H6            1 RES     
   18170 H6        -678.2973  -481.6086   587.2892 H6            1 RES     
   18171 H6        -679.3546  -480.1594   587.4320 H6            1 RES     
   18172 H6        -676.2803  -480.0810   587.1590 H6            1 RES     
   18173 H6        -677.3585  -478.6471   587.3015 H6            1 RES     
   18174 H6        -676.5898  -479.1087   584.9811 H6            1 RES     
   18175 H6        -677.3364  -480.7446   585.0201 H6            1 RES     
   18176 H6        -679.6118  -479.6782   585.2204 H6            1 RES     
   18177 H6        -678.7236  -479.0854   583.7787 H6            1 RES     
   18178 H6        -678.8303  -478.0419   585.2448 H6            1 RES     
   18179 C0        -683.5109  -475.4840   606.2309 C0            1 RES     
   18180 C0        -683.1380  -475.1342   607.7281 C0            1 RES     
   18181 C0        -681.7953  -475.0664   607.8895 C0            1 RES     
   18182 S1        -681.3111  -474.6601   609.4443 S1            1 RES     
   18183 C0        -682.9059  -474.5353   610.0172 C0            1 RES     
   18184 C0        -683.7726  -474.9035   608.9781 C0            1 RES     
   18185 C0        -681.1526  -475.4431   606.6856 C0            1 RES     
   18186 C0        -682.0636  -475.6988   605.7744 C0            1 RES     
   18187 C0        -681.4699  -476.2834   604.6049 C0            1 RES     
   18188 C0        -680.1032  -476.4378   604.7501 C0            1 RES     
   18189 S1        -679.4480  -475.8019   606.3028 S1            1 RES     
   18190 H2        -684.8177  -474.9479   609.1442 H2            1 RES     
   18191 H2        -682.0226  -476.6746   603.8037 H2            1 RES     
   18192 N3        -685.1008  -473.1599   612.7981 N3            1 RES     
   18193 C0        -684.6959  -473.7070   611.6176 C0            1 RES     
   18194 C0        -683.3333  -474.0188   611.3656 C0            1 RES     
   18195 C0        -682.4267  -473.7426   612.4118 C0            1 RES     
   18196 N3        -681.0899  -473.9782   612.3581 N3            1 RES     
   18197 S1        -680.5745  -473.4644   613.8401 S1            1 RES     
   18198 N3        -681.9501  -472.9371   614.5800 N3            1 RES     
   18199 C0        -682.8951  -473.1717   613.6314 C0            1 RES     
   18200 C0        -684.2373  -472.8827   613.8056 C0            1 RES     
   18201 H4        -685.4484  -473.8618   610.8724 H4            1 RES     
   18202 C5        -681.9988  -467.0906   613.0964 C5            1 RES     
   18203 C5        -681.5636  -468.5378   612.8670 C5            1 RES     
   18204 C5        -682.6394  -469.3893   612.1717 C5            1 RES     
   18205 C5        -682.9352  -468.9416   610.7284 C5            1 RES     
   18206 C5        -683.9843  -469.8546   610.0756 C5            1 RES     
   18207 C5        -684.1803  -469.5092   608.5830 C5            1 RES     
   18208 C5        -685.1843  -470.4197   607.8272 C5            1 RES     
   18209 C5        -684.8533  -471.8960   608.0529 C5            1 RES     
   18210 C5        -685.4643  -472.9335   607.0777 C5            1 RES     
   18211 C5        -687.0131  -473.2279   607.1334 C5            1 RES     
   18212 C5        -687.2616  -474.0376   608.4362 C5            1 RES     
   18213 C5        -688.5820  -474.6286   608.9443 C5            1 RES     
   18214 C5        -688.2009  -475.3589   610.2742 C5            1 RES     
   18215 C5        -689.3106  -476.0683   611.0481 C5            1 RES     
   18216 C5        -689.8154  -477.3263   610.3522 C5            1 RES     
   18217 C5        -684.7006  -473.0037   605.7474 C5            1 RES     
   18218 C0        -684.4198  -474.4897   605.2771 C0            1 RES     
   18219 C5        -684.2278  -474.4983   603.6992 C5            1 RES     
   18220 C5        -685.1281  -475.4652   602.8534 C5            1 RES     
   18221 C5        -684.5568  -476.9044   602.7001 C5            1 RES     
   18222 C5        -683.4022  -477.0496   601.6804 C5            1 RES     
   18223 C5        -682.6803  -478.4091   601.7611 C5            1 RES     
   18224 C5        -683.4928  -479.6165   601.2674 C5            1 RES     
   18225 C5        -683.8635  -479.5749   599.7722 C5            1 RES     
   18226 C5        -682.6429  -479.4986   598.8496 C5            1 RES     
   18227 C5        -685.5903  -474.8466   601.4771 C5            1 RES     
   18228 C5        -684.5081  -474.1336   600.6200 C5            1 RES     
   18229 C5        -684.9647  -473.7588   599.1921 C5            1 RES     
   18230 C5        -686.1411  -472.7650   599.1192 C5            1 RES     
   18231 C5        -686.5166  -472.3786   597.6674 C5            1 RES     
   18232 C5        -685.4248  -471.5605   596.9430 C5            1 RES     
   18233 C5        -685.7841  -471.1816   595.4935 C5            1 RES     
   18234 C5        -686.9861  -470.2442   595.3777 C5            1 RES     
   18235 H6        -682.1688  -466.5643   612.1357 H6            1 RES     
   18236 H6        -681.2014  -466.5480   613.6467 H6            1 RES     
   18237 H6        -682.9289  -467.0631   613.7030 H6            1 RES     
   18238 H6        -680.6216  -468.5563   612.2763 H6            1 RES     
   18239 H6        -681.3542  -468.9904   613.8609 H6            1 RES     
   18240 H6        -682.2651  -470.4372   612.1412 H6            1 RES     
   18241 H6        -683.5713  -469.3738   612.7771 H6            1 RES     
   18242 H6        -681.9873  -468.9958   610.1474 H6            1 RES     
   18243 H6        -683.3107  -467.8981   610.7056 H6            1 RES     
   18244 H6        -683.6067  -470.8955   610.1648 H6            1 RES     
   18245 H6        -684.9501  -469.7731   610.6186 H6            1 RES     
   18246 H6        -684.5029  -468.4515   608.4738 H6            1 RES     
   18247 H6        -683.1892  -469.6149   608.0869 H6            1 RES     
   18248 H6        -686.2293  -470.2306   608.1542 H6            1 RES     
   18249 H6        -685.1002  -470.1672   606.7482 H6            1 RES     
   18250 H6        -685.1215  -472.1500   609.0954 H6            1 RES     
   18251 H6        -683.7477  -472.0140   607.9853 H6            1 RES     
   18252 H6        -685.0921  -473.8151   607.4561 H6            1 RES     
   18253 H6        -687.6001  -472.2870   607.0797 H6            1 RES     
   18254 H6        -687.3040  -473.8828   606.2826 H6            1 RES     
   18255 H6        -686.6657  -474.9576   608.2873 H6            1 RES     
   18256 H6        -686.8846  -473.4049   609.2574 H6            1 RES     
   18257 H6        -688.9955  -475.3448   608.2016 H6            1 RES     
   18258 H6        -689.3214  -473.8257   609.1441 H6            1 RES     
   18259 H6        -687.3962  -476.1082   610.0845 H6            1 RES     
   18260 H6        -687.7820  -474.5972   610.9679 H6            1 RES     
   18261 H6        -690.1410  -475.3647   611.2600 H6            1 RES     
   18262 H6        -688.8736  -476.3933   612.0207 H6            1 RES     
   18263 H6        -688.9740  -478.0349   610.1840 H6            1 RES     
   18264 H6        -690.2919  -477.0782   609.3842 H6            1 RES     
   18265 H6        -690.5592  -477.8267   611.0086 H6            1 RES     
   18266 H6        -683.6925  -472.5415   605.8223 H6            1 RES     
   18267 H6        -685.2863  -472.3886   605.0306 H6            1 RES     
   18268 H6        -684.5963  -473.5087   603.3686 H6            1 RES     
   18269 H6        -683.1674  -474.4723   603.3790 H6            1 RES     
   18270 H6        -686.0729  -475.5840   603.4306 H6            1 RES     
   18271 H6        -684.2437  -477.2444   603.7093 H6            1 RES     
   18272 H6        -685.3725  -477.5809   602.3650 H6            1 RES     
   18273 H6        -683.7668  -476.8925   600.6475 H6            1 RES     
   18274 H6        -682.6476  -476.2636   601.8711 H6            1 RES     
   18275 H6        -681.7423  -478.3459   601.1729 H6            1 RES     
   18276 H6        -682.3757  -478.6041   602.8097 H6            1 RES     
   18277 H6        -684.4181  -479.7159   601.8727 H6            1 RES     
   18278 H6        -682.8797  -480.5276   601.4426 H6            1 RES     
   18279 H6        -684.5397  -478.7217   599.5587 H6            1 RES     
   18280 H6        -684.4156  -480.5095   599.5358 H6            1 RES     
   18281 H6        -681.9533  -480.3473   599.0463 H6            1 RES     
   18282 H6        -682.9734  -479.5465   597.7913 H6            1 RES     
   18283 H6        -682.0962  -478.5426   598.9840 H6            1 RES     
   18284 H6        -686.3565  -474.0711   601.6934 H6            1 RES     
   18285 H6        -686.0941  -475.6441   600.8888 H6            1 RES     
   18286 H6        -683.6226  -474.7676   600.4794 H6            1 RES     
   18287 H6        -684.1589  -473.2169   601.1412 H6            1 RES     
   18288 H6        -684.0807  -473.3099   598.6971 H6            1 RES     
   18289 H6        -685.2356  -474.6852   598.6389 H6            1 RES     
   18290 H6        -685.8990  -471.8413   599.6883 H6            1 RES     
   18291 H6        -687.0300  -473.2403   599.5814 H6            1 RES     
   18292 H6        -686.7497  -473.2969   597.0851 H6            1 RES     
   18293 H6        -687.4399  -471.7611   597.7200 H6            1 RES     
   18294 H6        -684.4947  -472.1597   596.8839 H6            1 RES     
   18295 H6        -685.2085  -470.6346   597.5195 H6            1 RES     
   18296 H6        -684.9075  -470.6591   595.0503 H6            1 RES     
   18297 H6        -685.9723  -472.1007   594.8980 H6            1 RES     
   18298 H6        -687.9121  -470.7309   595.7439 H6            1 RES     
   18299 H6        -687.1407  -469.9775   594.3101 H6            1 RES     
   18300 H6        -686.8042  -469.3101   595.9505 H6            1 RES     
   18301 C0        -687.6778  -471.0318   617.5176 C0            1 RES     
   18302 C0        -687.0218  -471.1186   618.9546 C0            1 RES     
   18303 C0        -685.6869  -471.3273   618.8657 C0            1 RES     
   18304 S1        -684.9028  -471.3932   620.3482 S1            1 RES     
   18305 C0        -686.3316  -471.1307   621.2297 C0            1 RES     
   18306 C0        -687.4006  -471.0840   620.3235 C0            1 RES     
   18307 C0        -685.3246  -471.5137   617.5100 C0            1 RES     
   18308 C0        -686.3935  -471.3820   616.7578 C0            1 RES     
   18309 C0        -686.1178  -471.7668   615.4021 C0            1 RES     
   18310 C0        -684.8096  -472.1881   615.2478 C0            1 RES     
   18311 S1        -683.8116  -472.0641   616.7423 S1            1 RES     
   18312 H2        -688.3949  -470.9828   620.6744 H2            1 RES     
   18313 H2        -686.8535  -471.8534   614.6594 H2            1 RES     
   18314 N3        -687.7464  -470.0929   624.6007 N3            1 RES     
   18315 C0        -687.6467  -470.4061   623.2783 C0            1 RES     
   18316 C0        -686.4348  -470.8827   622.7115 C0            1 RES     
   18317 C0        -685.3457  -471.0261   623.5981 C0            1 RES     
   18318 N3        -684.1131  -471.4725   623.2421 N3            1 RES     
   18319 S1        -683.2867  -471.4240   624.6706 S1            1 RES     
   18320 N3        -684.3931  -470.8550   625.7522 N3            1 RES     
   18321 C0        -685.4959  -470.6884   624.9751 C0            1 RES     
   18322 C0        -686.7045  -470.2186   625.4587 C0            1 RES     
   18323 H4        -688.5165  -470.2452   622.6757 H4            1 RES     
   18324 C5        -683.4098  -464.9079   625.5272 C5            1 RES     
   18325 C5        -683.3327  -466.3124   624.9289 C5            1 RES     
   18326 C5        -684.6563  -466.7724   624.2944 C5            1 RES     
   18327 C5        -685.0595  -465.9500   623.0567 C5            1 RES     
   18328 C5        -686.3641  -466.4836   622.4454 C5            1 RES     
   18329 C5        -686.6999  -465.7646   621.1203 C5            1 RES     
   18330 C5        -687.9758  -466.2793   620.4020 C5            1 RES     
   18331 C5        -687.9382  -467.8014   620.2547 C5            1 RES     
   18332 C5        -688.8940  -468.4540   619.2245 C5            1 RES     
   18333 C5        -690.4443  -468.4773   619.5153 C5            1 RES     
   18334 C5        -690.6649  -469.5169   620.6489 C5            1 RES     
   18335 C5        -691.9912  -469.9711   621.2698 C5            1 RES     
   18336 C5        -691.5829  -471.0515   622.3249 C5            1 RES     
   18337 C5        -692.6918  -471.7189   623.1365 C5            1 RES     
   18338 C5        -693.5508  -472.6671   622.3091 C5            1 RES     
   18339 C5        -688.3680  -468.3388   617.7865 C5            1 RES     
   18340 C0        -688.4839  -469.6960   616.9786 C0            1 RES     
   18341 C5        -688.5334  -469.3631   615.4251 C5            1 RES     
   18342 C5        -689.7343  -469.9283   614.5890 C5            1 RES     
   18343 C5        -689.5128  -471.3671   614.0393 C5            1 RES     
   18344 C5        -688.5795  -471.4658   612.8092 C5            1 RES     
   18345 C5        -688.1610  -472.9102   612.4715 C5            1 RES     
   18346 C5        -689.2765  -473.8043   611.9077 C5            1 RES     
   18347 C5        -689.8465  -473.3445   610.5518 C5            1 RES     
   18348 C5        -688.7878  -473.2662   609.4473 C5            1 RES     
   18349 C5        -690.2517  -468.9294   613.4823 C5            1 RES     
   18350 C5        -689.1809  -468.2341   612.5969 C5            1 RES     
   18351 C5        -689.7526  -467.4568   611.3899 C5            1 RES     
   18352 C5        -690.6870  -466.2840   611.7478 C5            1 RES     
   18353 C5        -691.1815  -465.5041   610.5047 C5            1 RES     
   18354 C5        -690.0594  -464.7416   609.7663 C5            1 RES     
   18355 C5        -690.5395  -463.9723   608.5207 C5            1 RES     
   18356 C5        -691.5169  -462.8387   608.8310 C5            1 RES     
   18357 H6        -683.6035  -464.1471   624.7446 H6            1 RES     
   18358 H6        -682.4426  -464.6599   626.0129 H6            1 RES     
   18359 H6        -684.2126  -464.8628   626.2937 H6            1 RES     
   18360 H6        -682.5143  -466.3547   624.1772 H6            1 RES     
   18361 H6        -683.0805  -467.0176   625.7508 H6            1 RES     
   18362 H6        -684.5233  -467.8320   623.9801 H6            1 RES     
   18363 H6        -685.4634  -466.7382   625.0576 H6            1 RES     
   18364 H6        -684.2415  -466.0297   622.3059 H6            1 RES     
   18365 H6        -685.2024  -464.8818   623.3192 H6            1 RES     
   18366 H6        -686.2087  -467.5654   622.2467 H6            1 RES     
   18367 H6        -687.1991  -466.3656   623.1686 H6            1 RES     
   18368 H6        -686.8016  -464.6717   621.2926 H6            1 RES     
   18369 H6        -685.8387  -465.9213   620.4323 H6            1 RES     
   18370 H6        -688.8961  -465.9933   620.9550 H6            1 RES     
   18371 H6        -687.9999  -465.7964   619.4013 H6            1 RES     
   18372 H6        -688.0975  -468.2448   621.2553 H6            1 RES     
   18373 H6        -686.9058  -468.0917   619.9536 H6            1 RES     
   18374 H6        -688.6671  -469.4514   619.3370 H6            1 RES     
   18375 H6        -690.8180  -467.4628   619.7678 H6            1 RES     
   18376 H6        -690.9909  -468.8500   618.6210 H6            1 RES     
   18377 H6        -690.3080  -470.4650   620.2044 H6            1 RES     
   18378 H6        -690.0444  -469.1735   621.4938 H6            1 RES     
   18379 H6        -692.6533  -470.4066   620.4904 H6            1 RES     
   18380 H6        -692.5042  -469.1220   621.7670 H6            1 RES     
   18381 H6        -690.9939  -471.8633   621.8358 H6            1 RES     
   18382 H6        -690.9131  -470.5619   623.0656 H6            1 RES     
   18383 H6        -693.3120  -470.9515   623.6425 H6            1 RES     
   18384 H6        -692.1956  -472.3369   623.9202 H6            1 RES     
   18385 H6        -692.9146  -473.4515   621.8420 H6            1 RES     
   18386 H6        -694.1009  -472.1167   621.5217 H6            1 RES     
   18387 H6        -694.2790  -473.1709   622.9802 H6            1 RES     
   18388 H6        -687.2846  -468.0915   617.7591 H6            1 RES     
   18389 H6        -688.9080  -467.4783   617.3359 H6            1 RES     
   18390 H6        -688.7266  -468.2745   615.3798 H6            1 RES     
   18391 H6        -687.5511  -469.4479   614.9195 H6            1 RES     
   18392 H6        -690.5868  -470.0135   615.3003 H6            1 RES     
   18393 H6        -689.1340  -471.9865   614.8790 H6            1 RES     
   18394 H6        -690.4946  -471.7910   613.7364 H6            1 RES     
   18395 H6        -689.0506  -471.0065   611.9195 H6            1 RES     
   18396 H6        -687.6547  -470.8922   613.0075 H6            1 RES     
   18397 H6        -687.3286  -472.8744   611.7396 H6            1 RES     
   18398 H6        -687.7536  -473.3990   613.3801 H6            1 RES     
   18399 H6        -690.1019  -473.8811   612.6461 H6            1 RES     
   18400 H6        -688.8533  -474.8238   611.7728 H6            1 RES     
   18401 H6        -690.3487  -472.3602   610.6502 H6            1 RES     
   18402 H6        -690.6143  -474.0846   610.2405 H6            1 RES     
   18403 H6        -688.2741  -474.2445   609.3310 H6            1 RES     
   18404 H6        -689.2734  -473.0027   608.4849 H6            1 RES     
   18405 H6        -688.0356  -472.4804   609.6660 H6            1 RES     
   18406 H6        -690.7939  -468.1057   613.9948 H6            1 RES     
   18407 H6        -690.9956  -469.4634   612.8518 H6            1 RES     
   18408 H6        -688.4821  -468.9615   612.1629 H6            1 RES     
   18409 H6        -688.5708  -467.5432   613.2168 H6            1 RES     
   18410 H6        -688.8762  -467.0651   610.8363 H6            1 RES     
   18411 H6        -690.2939  -468.1631   610.7222 H6            1 RES     
   18412 H6        -690.1718  -465.5790   612.4358 H6            1 RES     
   18413 H6        -691.5787  -466.6922   612.2655 H6            1 RES     
   18414 H6        -691.6888  -466.2024   609.8034 H6            1 RES     
   18415 H6        -691.9334  -464.7650   610.8581 H6            1 RES     
   18416 H6        -689.2980  -465.4629   609.4091 H6            1 RES     
   18417 H6        -689.5675  -464.0318   610.4666 H6            1 RES     
   18418 H6        -689.6468  -463.5213   608.0333 H6            1 RES     
   18419 H6        -691.0056  -464.6761   607.7980 H6            1 RES     
   18420 H6        -692.4611  -463.2285   609.2612 H6            1 RES     
   18421 H6        -691.7669  -462.3032   607.8899 H6            1 RES     
   18422 H6        -691.0571  -462.1141   609.5360 H6            1 RES     
   18423 C0        -689.0831  -468.7294   630.0594 C0            1 RES     
   18424 C0        -688.2560  -469.2686   631.2956 C0            1 RES     
   18425 C0        -687.0246  -469.6806   630.9116 C0            1 RES     
   18426 S1        -686.0626  -470.2331   632.1710 S1            1 RES     
   18427 C0        -687.2560  -469.9415   633.3449 C0            1 RES     
   18428 C0        -688.4122  -469.4943   632.6895 C0            1 RES     
   18429 C0        -686.9148  -469.6001   629.5025 C0            1 RES     
   18430 C0        -688.0300  -469.1084   629.0123 C0            1 RES     
   18431 C0        -688.0463  -469.2023   627.5794 C0            1 RES     
   18432 C0        -686.8957  -469.7973   627.0945 C0            1 RES     
   18433 S1        -685.6848  -470.2085   628.3631 S1            1 RES     
   18434 H2        -689.2989  -469.3070   633.2378 H2            1 RES     
   18435 H2        -688.8849  -468.9798   626.9899 H2            1 RES     
   18436 N3        -687.9026  -469.5029   637.0641 N3            1 RES     
   18437 C0        -688.0686  -469.5055   635.7116 C0            1 RES     
   18438 C0        -687.0838  -470.0384   634.8378 C0            1 RES     
   18439 C0        -685.9318  -470.5768   635.4508 C0            1 RES     
   18440 N3        -684.8895  -471.1345   634.7817 N3            1 RES     
   18441 S1        -683.8701  -471.5722   636.0045 S1            1 RES     
   18442 N3        -684.6571  -471.0918   637.3710 N3            1 RES     
   18443 C0        -685.8013  -470.5549   636.8705 C0            1 RES     
   18444 C0        -686.7966  -470.0093   637.6623 C0            1 RES     
   18445 H4        -688.9631  -469.0563   635.3327 H4            1 RES     
   18446 C5        -682.4700  -465.5283   638.1767 C5            1 RES     
   18447 C5        -682.7841  -466.7416   637.3016 C5            1 RES     
   18448 C5        -684.2542  -466.7987   636.8528 C5            1 RES     
   18449 C5        -684.6506  -465.6482   635.9093 C5            1 RES     
   18450 C5        -686.1147  -465.7844   635.4642 C5            1 RES     
   18451 C5        -686.4811  -464.7239   634.4027 C5            1 RES     
   18452 C5        -687.9292  -464.8216   633.8532 C5            1 RES     
   18453 C5        -688.2400  -466.2475   633.3948 C5            1 RES     
   18454 C5        -689.4546  -466.4590   632.4563 C5            1 RES     
   18455 C5        -690.9137  -466.2788   633.0281 C5            1 RES     
   18456 C5        -691.1814  -467.5028   633.9473 C5            1 RES     
   18457 C5        -692.4676  -467.8520   634.7054 C5            1 RES     
   18458 C5        -692.1483  -469.2064   635.4201 C5            1 RES     
   18459 C5        -693.2419  -469.8427   636.2763 C5            1 RES     
   18460 C5        -694.3963  -470.4017   635.4538 C5            1 RES     
   18461 C5        -689.1344  -466.0994   630.9982 C5            1 RES     
   18462 C0        -689.6557  -467.1840   629.9685 C0            1 RES     
   18463 C5        -689.8618  -466.4881   628.5543 C5            1 RES     
   18464 C5        -691.2658  -466.6193   627.8670 C5            1 RES     
   18465 C5        -691.4405  -467.9022   627.0039 C5            1 RES     
   18466 C5        -690.7421  -467.8677   625.6237 C5            1 RES     
   18467 C5        -690.6965  -469.2409   624.9251 C5            1 RES     
   18468 C5        -692.0480  -469.7659   624.4159 C5            1 RES     
   18469 C5        -692.7004  -468.9047   623.3171 C5            1 RES     
   18470 C5        -691.8245  -468.7528   622.0695 C5            1 RES     
   18471 C5        -691.7154  -465.3114   627.1070 C5            1 RES     
   18472 C5        -690.6636  -464.6242   626.1930 C5            1 RES     
   18473 C5        -691.2278  -463.4947   625.3021 C5            1 RES     
   18474 C5        -691.8266  -462.2955   626.0638 C5            1 RES     
   18475 C5        -692.3211  -461.1685   625.1239 C5            1 RES     
   18476 C5        -691.1836  -460.4610   624.3548 C5            1 RES     
   18477 C5        -691.6668  -459.3460   623.4076 C5            1 RES     
   18478 C5        -692.3226  -458.1654   624.1238 C5            1 RES     
   18479 H6        -682.6100  -464.5815   637.6174 H6            1 RES     
   18480 H6        -681.4112  -465.5761   638.5079 H6            1 RES     
   18481 H6        -683.1223  -465.5268   639.0758 H6            1 RES     
   18482 H6        -682.1138  -466.7468   636.4144 H6            1 RES     
   18483 H6        -682.5698  -467.6549   637.8988 H6            1 RES     
   18484 H6        -684.3986  -467.7596   636.3099 H6            1 RES     
   18485 H6        -684.9136  -466.8060   637.7475 H6            1 RES     
   18486 H6        -683.9886  -465.6893   635.0153 H6            1 RES     
   18487 H6        -684.5216  -464.6650   636.4061 H6            1 RES     
   18488 H6        -686.2253  -466.7981   635.0234 H6            1 RES     
   18489 H6        -686.7891  -465.6972   636.3427 H6            1 RES     
   18490 H6        -686.3203  -463.7027   634.8101 H6            1 RES     
   18491 H6        -685.7846  -464.8610   633.5451 H6            1 RES     
   18492 H6        -688.6752  -464.5186   634.6189 H6            1 RES     
   18493 H6        -687.9972  -464.1182   632.9953 H6            1 RES     
   18494 H6        -688.3408  -466.8809   634.2957 H6            1 RES     
   18495 H6        -687.3496  -466.6341   632.8485 H6            1 RES     
   18496 H6        -689.4320  -467.4784   632.3177 H6            1 RES     
   18497 H6        -691.0205  -465.3041   633.5488 H6            1 RES     
   18498 H6        -691.6533  -466.3268   632.1985 H6            1 RES     
   18499 H6        -691.1051  -468.3655   633.2590 H6            1 RES     
   18500 H6        -690.3841  -467.4840   634.7092 H6            1 RES     
   18501 H6        -693.3151  -467.9670   633.9955 H6            1 RES     
   18502 H6        -692.7080  -467.0690   635.4540 H6            1 RES     
   18503 H6        -691.8253  -469.9690   634.6723 H6            1 RES     
   18504 H6        -691.2875  -469.0318   636.1024 H6            1 RES     
   18505 H6        -693.6021  -469.1211   637.0373 H6            1 RES     
   18506 H6        -692.7790  -470.7063   636.8078 H6            1 RES     
   18507 H6        -694.0185  -471.1516   634.7236 H6            1 RES     
   18508 H6        -694.9262  -469.5924   634.9154 H6            1 RES     
   18509 H6        -695.1081  -470.9150   636.1352 H6            1 RES     
   18510 H6        -688.0395  -466.0463   630.8143 H6            1 RES     
   18511 H6        -689.5386  -465.0756   630.8443 H6            1 RES     
   18512 H6        -689.8224  -465.4034   628.7695 H6            1 RES     
   18513 H6        -689.0060  -466.6211   627.8631 H6            1 RES     
   18514 H6        -692.0022  -466.7204   628.6961 H6            1 RES     
   18515 H6        -691.0831  -468.7598   627.6113 H6            1 RES     
   18516 H6        -692.5240  -468.0634   626.8152 H6            1 RES     
   18517 H6        -691.2303  -467.1350   624.9534 H6            1 RES     
   18518 H6        -689.6971  -467.5287   625.7533 H6            1 RES     
   18519 H6        -689.9931  -469.1786   624.0701 H6            1 RES     
   18520 H6        -690.2734  -469.9951   625.6199 H6            1 RES     
   18521 H6        -692.7524  -469.8701   625.2676 H6            1 RES     
   18522 H6        -691.8772  -470.7820   623.9977 H6            1 RES     
   18523 H6        -692.9605  -467.8996   623.7083 H6            1 RES     
   18524 H6        -693.6460  -469.4034   623.0149 H6            1 RES     
   18525 H6        -691.5547  -469.7499   621.6602 H6            1 RES     
   18526 H6        -692.3793  -468.1874   621.2924 H6            1 RES     
   18527 H6        -690.8979  -468.1857   622.2951 H6            1 RES     
   18528 H6        -691.9873  -464.5511   627.8707 H6            1 RES     
   18529 H6        -692.6410  -465.5416   626.5357 H6            1 RES     
   18530 H6        -690.2083  -465.3385   625.4942 H6            1 RES     
   18531 H6        -689.8352  -464.2181   626.8117 H6            1 RES     
   18532 H6        -690.3795  -463.1424   624.6822 H6            1 RES     
   18533 H6        -692.0000  -463.9161   624.6211 H6            1 RES     
   18534 H6        -691.0768  -461.8755   626.7689 H6            1 RES     
   18535 H6        -692.6985  -462.6524   626.6488 H6            1 RES     
   18536 H6        -693.0638  -461.5803   624.4058 H6            1 RES     
   18537 H6        -692.8370  -460.4146   625.7579 H6            1 RES     
   18538 H6        -690.6553  -461.1987   623.7190 H6            1 RES     
   18539 H6        -690.4534  -460.0353   625.0773 H6            1 RES     
   18540 H6        -690.7804  -458.9556   622.8602 H6            1 RES     
   18541 H6        -692.3741  -459.7651   622.6600 H6            1 RES     
   18542 H6        -693.2541  -458.4748   624.6387 H6            1 RES     
   18543 H6        -692.5886  -457.3865   623.3772 H6            1 RES     
   18544 H6        -691.6196  -457.7212   624.8600 H6            1 RES     
   18545 C0        -688.0958  -469.2628   642.8389 C0            1 RES     
   18546 C0        -687.2297  -470.2164   643.7572 C0            1 RES     
   18547 C0        -686.1853  -470.7345   643.0684 C0            1 RES     
   18548 S1        -685.1883  -471.7300   643.9805 S1            1 RES     
   18549 C0        -686.1051  -471.5214   645.3959 C0            1 RES     
   18550 C0        -687.2229  -470.7359   645.0796 C0            1 RES     
   18551 C0        -686.2702  -470.3422   641.7108 C0            1 RES     
   18552 C0        -687.3145  -469.5606   641.5543 C0            1 RES     
   18553 C0        -687.5618  -469.3071   640.1627 C0            1 RES     
   18554 C0        -686.6496  -469.9619   639.3553 C0            1 RES     
   18555 S1        -685.3807  -470.8682   640.2572 S1            1 RES     
   18556 H2        -687.9581  -470.5319   645.8143 H2            1 RES     
   18557 H2        -688.4112  -468.8076   639.8029 H2            1 RES     
   18558 N3        -686.0865  -471.8725   649.1799 N3            1 RES     
   18559 C0        -686.4471  -471.5246   647.9127 C0            1 RES     
   18560 C0        -685.7390  -471.9988   646.7764 C0            1 RES     
   18561 C0        -684.6511  -472.8605   647.0344 C0            1 RES     
   18562 N3        -683.8626  -473.4169   646.0784 N3            1 RES     
   18563 S1        -682.7911  -474.3041   646.9677 S1            1 RES     
   18564 N3        -683.2466  -474.0319   648.5285 N3            1 RES     
   18565 C0        -684.3107  -473.1996   648.3767 C0            1 RES     
   18566 C0        -685.0383  -472.6921   649.4390 C0            1 RES     
   18567 H4        -687.2709  -470.8489   647.8121 H4            1 RES     
   18568 C5        -679.8267  -469.2906   650.0147 C5            1 RES     
   18569 C5        -680.5185  -470.1870   648.9878 C5            1 RES     
   18570 C5        -682.0166  -469.8774   648.8275 C5            1 RES     
   18571 C5        -682.2929  -468.4847   648.2318 C5            1 RES     
   18572 C5        -683.8016  -468.2527   648.0577 C5            1 RES     
   18573 C5        -684.0856  -466.9231   647.3247 C5            1 RES     
   18574 C5        -685.5860  -466.6323   647.0551 C5            1 RES     
   18575 C5        -686.2585  -467.8314   646.3844 C5            1 RES     
   18576 C5        -687.6153  -467.5978   645.6734 C5            1 RES     
   18577 C5        -688.9013  -467.3060   646.5391 C5            1 RES     
   18578 C5        -689.2857  -468.6470   647.2238 C5            1 RES     
   18579 C5        -690.4903  -468.9355   648.1274 C5            1 RES     
   18580 C5        -690.3659  -470.4553   648.4766 C5            1 RES     
   18581 C5        -691.4314  -471.0751   649.3790 C5            1 RES     
   18582 C5        -692.7871  -471.2117   648.6971 C5            1 RES     
   18583 C5        -687.4446  -466.9640   644.2853 C5            1 RES     
   18584 C0        -688.3318  -467.6644   643.1760 C0            1 RES     
   18585 C5        -688.5911  -466.6275   641.9994 C5            1 RES     
   18586 C5        -690.0764  -466.3436   641.5823 C5            1 RES     
   18587 C5        -690.6467  -467.3338   640.5260 C5            1 RES     
   18588 C5        -690.1687  -467.0953   639.0740 C5            1 RES     
   18589 C5        -690.5214  -468.2493   638.1151 C5            1 RES     
   18590 C5        -692.0139  -468.3933   637.7786 C5            1 RES     
   18591 C5        -692.6222  -467.1952   637.0242 C5            1 RES     
   18592 C5        -691.9281  -466.9072   635.6892 C5            1 RES     
   18593 C5        -690.3433  -464.8347   641.2051 C5            1 RES     
   18594 C5        -689.3157  -464.1452   640.2656 C5            1 RES     
   18595 C5        -689.7508  -462.7556   639.7484 C5            1 RES     
   18596 C5        -689.9603  -461.6859   640.8387 C5            1 RES     
   18597 C5        -690.3358  -460.2993   640.2606 C5            1 RES     
   18598 C5        -689.1998  -459.6397   639.4479 C5            1 RES     
   18599 C5        -689.5680  -458.2648   638.8582 C5            1 RES     
   18600 C5        -689.8432  -457.1921   639.9120 C5            1 RES     
   18601 H6        -679.8422  -468.2286   649.6973 H6            1 RES     
   18602 H6        -678.7655  -469.6003   650.1198 H6            1 RES     
   18603 H6        -680.3235  -469.3885   651.0034 H6            1 RES     
   18604 H6        -680.0034  -470.0985   648.0063 H6            1 RES     
   18605 H6        -680.4185  -471.2389   649.3342 H6            1 RES     
   18606 H6        -682.4416  -470.6413   648.1383 H6            1 RES     
   18607 H6        -682.5228  -469.9814   649.8114 H6            1 RES     
   18608 H6        -681.7945  -468.4275   647.2381 H6            1 RES     
   18609 H6        -681.8848  -467.6858   648.8842 H6            1 RES     
   18610 H6        -684.1901  -469.0971   647.4494 H6            1 RES     
   18611 H6        -684.3044  -468.2600   649.0483 H6            1 RES     
   18612 H6        -683.6519  -466.0724   647.8929 H6            1 RES     
   18613 H6        -683.5690  -466.9723   646.3398 H6            1 RES     
   18614 H6        -686.1286  -466.3940   647.9951 H6            1 RES     
   18615 H6        -685.6281  -465.7446   646.3877 H6            1 RES     
   18616 H6        -686.3582  -468.6330   647.1399 H6            1 RES     
   18617 H6        -685.5620  -468.2269   645.6104 H6            1 RES     
   18618 H6        -687.8318  -468.5428   645.3285 H6            1 RES     
   18619 H6        -688.7192  -466.4797   647.2579 H6            1 RES     
   18620 H6        -689.7483  -467.0253   645.8748 H6            1 RES     
   18621 H6        -689.4980  -469.3211   646.3728 H6            1 RES     
   18622 H6        -688.3991  -468.9497   647.8062 H6            1 RES     
   18623 H6        -691.4381  -468.7283   647.5851 H6            1 RES     
   18624 H6        -690.4446  -468.3231   649.0516 H6            1 RES     
   18625 H6        -690.3274  -471.0628   647.5415 H6            1 RES     
   18626 H6        -689.3965  -470.6013   649.0020 H6            1 RES     
   18627 H6        -691.5127  -470.5034   650.3256 H6            1 RES     
   18628 H6        -691.0905  -472.1075   649.6247 H6            1 RES     
   18629 H6        -692.6904  -471.8209   647.7709 H6            1 RES     
   18630 H6        -693.2054  -470.2178   648.4465 H6            1 RES     
   18631 H6        -693.4835  -471.7394   649.3834 H6            1 RES     
   18632 H6        -686.4030  -467.0612   643.9094 H6            1 RES     
   18633 H6        -687.6388  -465.8784   644.4235 H6            1 RES     
   18634 H6        -688.2894  -465.6491   642.4192 H6            1 RES     
   18635 H6        -687.8952  -466.7401   641.1445 H6            1 RES     
   18636 H6        -690.6866  -466.5083   642.4990 H6            1 RES     
   18637 H6        -690.3952  -468.3600   640.8660 H6            1 RES     
   18638 H6        -691.7553  -467.2532   640.5200 H6            1 RES     
   18639 H6        -690.5826  -466.1505   638.6732 H6            1 RES     
   18640 H6        -689.0681  -466.9852   639.0669 H6            1 RES     
   18641 H6        -689.9551  -468.1099   637.1718 H6            1 RES     
   18642 H6        -690.1713  -469.2091   638.5473 H6            1 RES     
   18643 H6        -692.5906  -468.5719   638.7103 H6            1 RES     
   18644 H6        -692.1279  -469.2947   637.1375 H6            1 RES     
   18645 H6        -692.6008  -466.2823   637.6542 H6            1 RES     
   18646 H6        -693.6865  -467.4344   636.8140 H6            1 RES     
   18647 H6        -691.9411  -467.8098   635.0415 H6            1 RES     
   18648 H6        -692.4578  -466.0852   635.1646 H6            1 RES     
   18649 H6        -690.8789  -466.5811   635.8434 H6            1 RES     
   18650 H6        -690.3306  -464.2421   642.1453 H6            1 RES     
   18651 H6        -691.3707  -464.7569   640.7874 H6            1 RES     
   18652 H6        -689.1319  -464.7415   639.3620 H6            1 RES     
   18653 H6        -688.3376  -464.0493   640.7833 H6            1 RES     
   18654 H6        -688.9479  -462.4203   639.0622 H6            1 RES     
   18655 H6        -690.6872  -462.8612   639.1571 H6            1 RES     
   18656 H6        -689.0424  -461.5834   641.4572 H6            1 RES     
   18657 H6        -690.7921  -462.0132   641.4950 H6            1 RES     
   18658 H6        -691.2471  -460.3920   639.6299 H6            1 RES     
   18659 H6        -690.5793  -459.6391   641.1217 H6            1 RES     
   18660 H6        -688.9411  -460.2860   638.5860 H6            1 RES     
   18661 H6        -688.2970  -459.5325   640.0881 H6            1 RES     
   18662 H6        -688.7094  -457.9169   638.2420 H6            1 RES     
   18663 H6        -690.4509  -458.3638   638.1908 H6            1 RES     
   18664 H6        -690.7328  -457.4469   640.5220 H6            1 RES     
   18665 H6        -690.0439  -456.2239   639.4047 H6            1 RES     
   18666 H6        -688.9606  -457.0656   640.5742 H6            1 RES     
   18667 C0        -685.3688  -472.9811   654.8102 C0            1 RES     
   18668 C0        -684.6005  -474.2621   655.3315 C0            1 RES     
   18669 C0        -683.8045  -474.7764   654.3644 C0            1 RES     
   18670 S1        -682.9197  -476.1188   654.8462 S1            1 RES     
   18671 C0        -683.5514  -476.0951   656.4234 C0            1 RES     
   18672 C0        -684.5097  -475.0738   656.4941 C0            1 RES     
   18673 C0        -684.0032  -474.0641   653.1572 C0            1 RES     
   18674 C0        -684.8676  -473.0973   653.3664 C0            1 RES     
   18675 C0        -685.2579  -472.4812   652.1293 C0            1 RES     
   18676 C0        -684.6361  -473.0747   651.0458 C0            1 RES     
   18677 S1        -683.4713  -474.3771   651.4838 S1            1 RES     
   18678 H2        -685.0675  -474.9246   657.3820 H2            1 RES     
   18679 H2        -686.0245  -471.7698   652.0485 H2            1 RES     
   18680 N3        -683.0495  -477.3328   659.9813 N3            1 RES     
   18681 C0        -683.5106  -476.6362   658.9047 C0            1 RES     
   18682 C0        -683.0960  -476.9433   657.5814 C0            1 RES     
   18683 C0        -682.1915  -478.0184   657.4449 C0            1 RES     
   18684 N3        -681.6901  -478.4611   656.2625 N3            1 RES     
   18685 S1        -680.7137  -479.7076   656.7302 S1            1 RES     
   18686 N3        -680.8649  -479.7385   658.3715 N3            1 RES     
   18687 C0        -681.7369  -478.7209   658.5994 C0            1 RES     
   18688 C0        -682.1742  -478.3610   659.8621 C0            1 RES     
   18689 H4        -684.1766  -475.8224   659.1037 H4            1 RES     
   18690 C5        -676.3296  -476.1602   660.1071 C5            1 RES     
   18691 C5        -677.3409  -476.6517   659.0716 C5            1 RES     
   18692 C5        -678.7451  -476.0555   659.2681 C5            1 RES     
   18693 C5        -678.8023  -474.5349   659.0327 C5            1 RES     
   18694 C5        -680.2353  -474.0077   659.2022 C5            1 RES     
   18695 C5        -680.3337  -472.5134   658.8236 C5            1 RES     
   18696 C5        -681.7603  -471.9088   658.9119 C5            1 RES     
   18697 C5        -682.7650  -472.7774   658.1530 C5            1 RES     
   18698 C5        -684.1303  -472.1478   657.7782 C5            1 RES     
   18699 C5        -685.1820  -471.8494   658.9155 C5            1 RES     
   18700 C5        -685.7385  -473.2260   659.3737 C5            1 RES     
   18701 C5        -686.8300  -473.5054   660.4137 C5            1 RES     
   18702 C5        -686.9831  -475.0623   660.4157 C5            1 RES     
   18703 C5        -688.0112  -475.6822   661.3604 C5            1 RES     
   18704 C5        -689.4503  -475.4134   660.9381 C5            1 RES     
   18705 C5        -684.0350  -471.2423   656.5417 C5            1 RES     
   18706 C0        -685.2053  -471.4926   655.5045 C0            1 RES     
   18707 C5        -685.4078  -470.1770   654.6356 C5            1 RES     
   18708 C5        -686.8431  -469.5466   654.5779 C5            1 RES     
   18709 C5        -687.7615  -470.1419   653.4717 C5            1 RES     
   18710 C5        -687.4634  -469.6528   652.0345 C5            1 RES     
   18711 C5        -688.1922  -470.4659   650.9466 C5            1 RES     
   18712 C5        -689.7140  -470.2622   650.8807 C5            1 RES     
   18713 C5        -690.1568  -468.8317   650.5170 C5            1 RES     
   18714 C5        -689.6222  -468.3609   649.1607 C5            1 RES     
   18715 C5        -686.8342  -467.9686   654.5741 C5            1 RES     
   18716 C5        -685.8333  -467.2666   653.6153 C5            1 RES     
   18717 C5        -686.0328  -465.7398   653.4851 C5            1 RES     
   18718 C5        -685.8455  -464.9400   654.7897 C5            1 RES     
   18719 C5        -685.9972  -463.4121   654.5890 C5            1 RES     
   18720 C5        -684.8792  -462.7878   653.7250 C5            1 RES     
   18721 C5        -685.0281  -461.2695   653.5094 C5            1 RES     
   18722 C5        -684.9090  -460.4467   654.7922 C5            1 RES     
   18723 H6        -676.1645  -475.0674   660.0215 H6            1 RES     
   18724 H6        -675.3555  -476.6670   659.9414 H6            1 RES     
   18725 H6        -676.6842  -476.4016   661.1317 H6            1 RES     
   18726 H6        -676.9695  -476.4241   658.0484 H6            1 RES     
   18727 H6        -677.4180  -477.7565   659.1708 H6            1 RES     
   18728 H6        -679.4206  -476.5472   658.5325 H6            1 RES     
   18729 H6        -679.1108  -476.2999   660.2887 H6            1 RES     
   18730 H6        -678.4555  -474.3315   657.9947 H6            1 RES     
   18731 H6        -678.1411  -473.9980   659.7433 H6            1 RES     
   18732 H6        -680.8808  -474.6020   658.5209 H6            1 RES     
   18733 H6        -680.5761  -474.1619   660.2483 H6            1 RES     
   18734 H6        -679.6491  -471.9115   659.4590 H6            1 RES     
   18735 H6        -679.9908  -472.4169   657.7689 H6            1 RES     
   18736 H6        -682.0944  -471.8095   659.9669 H6            1 RES     
   18737 H6        -681.7097  -470.8947   658.4599 H6            1 RES     
   18738 H6        -682.9210  -473.7053   658.7342 H6            1 RES     
   18739 H6        -682.2912  -473.0934   657.1957 H6            1 RES     
   18740 H6        -684.5923  -472.9309   657.2963 H6            1 RES     
   18741 H6        -684.7234  -471.2625   659.7389 H6            1 RES     
   18742 H6        -686.0380  -471.2751   658.4974 H6            1 RES     
   18743 H6        -686.2133  -473.6308   658.4602 H6            1 RES     
   18744 H6        -684.8611  -473.8088   659.7011 H6            1 RES     
   18745 H6        -687.7811  -473.0126   660.1170 H6            1 RES     
   18746 H6        -686.5185  -473.1478   661.4169 H6            1 RES     
   18747 H6        -687.2138  -475.4273   659.3869 H6            1 RES     
   18748 H6        -686.0006  -475.4963   660.7045 H6            1 RES     
   18749 H6        -687.8277  -475.3466   662.4011 H6            1 RES     
   18750 H6        -687.8663  -476.7867   661.3207 H6            1 RES     
   18751 H6        -689.6239  -475.7923   659.9063 H6            1 RES     
   18752 H6        -689.6788  -474.3309   660.9801 H6            1 RES     
   18753 H6        -690.1341  -475.9586   661.6232 H6            1 RES     
   18754 H6        -683.1055  -471.4283   655.9612 H6            1 RES     
   18755 H6        -683.9702  -470.2039   656.9327 H6            1 RES     
   18756 H6        -684.8455  -469.3948   655.1799 H6            1 RES     
   18757 H6        -684.8862  -470.2034   653.6584 H6            1 RES     
   18758 H6        -687.3322  -469.8149   655.5416 H6            1 RES     
   18759 H6        -687.6877  -471.2473   653.5410 H6            1 RES     
   18760 H6        -688.8157  -469.8694   653.6951 H6            1 RES     
   18761 H6        -687.7204  -468.5824   651.9214 H6            1 RES     
   18762 H6        -686.3781  -469.7386   651.8389 H6            1 RES     
   18763 H6        -687.7549  -470.2077   649.9608 H6            1 RES     
   18764 H6        -687.9954  -471.5469   651.0991 H6            1 RES     
   18765 H6        -690.1714  -470.5532   651.8495 H6            1 RES     
   18766 H6        -690.1113  -470.9512   650.1036 H6            1 RES     
   18767 H6        -689.8479  -468.1129   651.3035 H6            1 RES     
   18768 H6        -691.2667  -468.8239   650.4707 H6            1 RES     
   18769 H6        -689.9233  -469.0672   648.3576 H6            1 RES     
   18770 H6        -690.0355  -467.3582   648.9260 H6            1 RES     
   18771 H6        -688.5164  -468.2697   649.1738 H6            1 RES     
   18772 H6        -686.5564  -467.6280   655.5949 H6            1 RES     
   18773 H6        -687.8713  -467.6151   654.3861 H6            1 RES     
   18774 H6        -685.9167  -467.6538   652.5911 H6            1 RES     
   18775 H6        -684.7918  -467.4692   653.9442 H6            1 RES     
   18776 H6        -685.2872  -465.3970   652.7404 H6            1 RES     
   18777 H6        -687.0470  -465.5363   653.0755 H6            1 RES     
   18778 H6        -684.8458  -465.1498   655.2283 H6            1 RES     
   18779 H6        -686.6218  -465.2630   655.5128 H6            1 RES     
   18780 H6        -686.9901  -463.1913   654.1394 H6            1 RES     
   18781 H6        -685.9640  -462.9433   655.5968 H6            1 RES     
   18782 H6        -684.8949  -463.2459   652.7163 H6            1 RES     
   18783 H6        -683.8900  -462.9955   654.1882 H6            1 RES     
   18784 H6        -684.2157  -460.9411   652.8238 H6            1 RES     
   18785 H6        -686.0005  -461.0509   653.0179 H6            1 RES     
   18786 H6        -685.7324  -460.6793   655.4967 H6            1 RES     
   18787 H6        -684.9708  -459.3660   654.5408 H6            1 RES     
   18788 H6        -683.9319  -460.6377   655.2844 H6            1 RES     
   18789 C0        -681.7618  -479.8551   665.0235 C0            1 RES     
   18790 C0        -681.2167  -481.3374   665.1159 C0            1 RES     
   18791 C0        -680.7007  -481.7384   663.9299 C0            1 RES     
   18792 S1        -680.0621  -483.2904   663.9495 S1            1 RES     
   18793 C0        -680.4340  -483.5319   665.5898 C0            1 RES     
   18794 C0        -681.1307  -482.4050   666.0494 C0            1 RES     
   18795 C0        -680.9186  -480.7363   662.9540 C0            1 RES     
   18796 C0        -681.5160  -479.7109   663.5175 C0            1 RES     
   18797 C0        -681.9438  -478.7600   662.5301 C0            1 RES     
   18798 C0        -681.6303  -479.1786   661.2498 C0            1 RES     
   18799 S1        -680.7191  -480.7310   661.1816 S1            1 RES     
   18800 H2        -681.5063  -482.3758   667.0393 H2            1 RES     
   18801 H2        -682.5440  -477.9269   662.7444 H2            1 RES     
   18802 N3        -679.6883  -485.6475   668.6575 N3            1 RES     
   18803 C0        -680.1437  -484.6455   667.8541 C0            1 RES     
   18804 C0        -680.0045  -484.6971   666.4416 C0            1 RES     
   18805 C0        -679.3809  -485.8503   665.9181 C0            1 RES     
   18806 N3        -679.1660  -486.0802   664.5966 N3            1 RES     
   18807 S1        -678.4204  -487.5533   664.6046 S1            1 RES     
   18808 N3        -678.3306  -487.9462   666.2031 N3            1 RES     
   18809 C0        -678.9216  -486.8754   666.7963 C0            1 RES     
   18810 C0        -679.0804  -486.7549   668.1658 C0            1 RES     
   18811 H4        -680.5835  -483.7985   668.3386 H4            1 RES     
   18812 C5        -672.9299  -485.7338   667.7274 C5            1 RES     
   18813 C5        -674.1645  -485.7802   666.8272 C5            1 RES     
   18814 C5        -675.3641  -485.0114   667.4067 C5            1 RES     
   18815 C5        -675.1291  -483.4926   667.5012 C5            1 RES     
   18816 C5        -676.3753  -482.7782   668.0462 C5            1 RES     
   18817 C5        -676.2069  -481.2434   668.0058 C5            1 RES     
   18818 C5        -677.4422  -480.4368   668.4873 C5            1 RES     
   18819 C5        -678.7102  -480.9105   667.7747 C5            1 RES     
   18820 C5        -679.9494  -479.9808   667.8050 C5            1 RES     
   18821 C5        -680.7332  -479.7818   669.1594 C5            1 RES     
   18822 C5        -681.4972  -481.1084   669.4260 C5            1 RES     
   18823 C5        -682.4573  -481.4313   670.5770 C5            1 RES     
   18824 C5        -682.9374  -482.8925   670.2915 C5            1 RES     
   18825 C5        -683.9233  -483.5292   671.2695 C5            1 RES     
   18826 C5        -685.3178  -482.9200   671.1949 C5            1 RES     
   18827 C5        -679.8465  -478.8386   666.7839 C5            1 RES     
   18828 C0        -681.1833  -478.6265   665.9616 C0            1 RES     
   18829 C5        -681.2261  -477.1276   665.4341 C5            1 RES     
   18830 C5        -682.4859  -476.2603   665.7824 C5            1 RES     
   18831 C5        -683.6633  -476.4054   664.7755 C5            1 RES     
   18832 C5        -683.4832  -475.6489   663.4380 C5            1 RES     
   18833 C5        -684.5215  -476.0397   662.3679 C5            1 RES     
   18834 C5        -685.9572  -475.5630   662.6381 C5            1 RES     
   18835 C5        -686.1328  -474.0323   662.6649 C5            1 RES     
   18836 C5        -685.7163  -473.3538   661.3560 C5            1 RES     
   18837 C5        -682.1406  -474.7532   666.0983 C5            1 RES     
   18838 C5        -681.1657  -474.0299   665.1285 C5            1 RES     
   18839 C5        -681.0513  -472.5052   665.3525 C5            1 RES     
   18840 C5        -680.5068  -472.0838   666.7319 C5            1 RES     
   18841 C5        -680.3564  -470.5497   666.8793 C5            1 RES     
   18842 C5        -679.2710  -469.9437   665.9624 C5            1 RES     
   18843 C5        -679.1221  -468.4158   666.0929 C5            1 RES     
   18844 C5        -678.6418  -467.9552   667.4691 C5            1 RES     
   18845 H6        -672.5496  -484.6982   667.8359 H6            1 RES     
   18846 H6        -672.1221  -486.3491   667.2782 H6            1 RES     
   18847 H6        -673.1727  -486.1457   668.7300 H6            1 RES     
   18848 H6        -673.9084  -485.3848   665.8200 H6            1 RES     
   18849 H6        -674.4604  -486.8460   666.7125 H6            1 RES     
   18850 H6        -676.2301  -485.1882   666.7300 H6            1 RES     
   18851 H6        -675.6187  -485.4234   668.4070 H6            1 RES     
   18852 H6        -674.9041  -483.1124   666.4794 H6            1 RES     
   18853 H6        -674.2710  -483.2642   668.1658 H6            1 RES     
   18854 H6        -677.2262  -483.0712   667.3950 H6            1 RES     
   18855 H6        -676.5828  -483.1144   669.0845 H6            1 RES     
   18856 H6        -675.3233  -480.9390   668.6069 H6            1 RES     
   18857 H6        -676.0109  -480.9606   666.9469 H6            1 RES     
   18858 H6        -677.5878  -480.5340   669.5845 H6            1 RES     
   18859 H6        -677.2435  -479.3694   668.2500 H6            1 RES     
   18860 H6        -678.9732  -481.9079   668.1738 H6            1 RES     
   18861 H6        -678.4616  -481.0680   666.7004 H6            1 RES     
   18862 H6        -680.6340  -480.5337   667.2716 H6            1 RES     
   18863 H6        -680.0433  -479.4969   669.9814 H6            1 RES     
   18864 H6        -681.4988  -478.9838   669.0391 H6            1 RES     
   18865 H6        -682.1771  -481.1951   668.5576 H6            1 RES     
   18866 H6        -680.7260  -481.8967   669.4533 H6            1 RES     
   18867 H6        -683.3142  -480.7235   670.5750 H6            1 RES     
   18868 H6        -681.9318  -481.3825   671.5531 H6            1 RES     
   18869 H6        -683.3903  -482.9565   669.2737 H6            1 RES     
   18870 H6        -682.0388  -483.5478   670.2918 H6            1 RES     
   18871 H6        -683.5206  -483.4879   672.3018 H6            1 RES     
   18872 H6        -684.0252  -484.6005   670.9788 H6            1 RES     
   18873 H6        -685.7189  -483.0066   670.1605 H6            1 RES     
   18874 H6        -685.3010  -481.8558   671.4994 H6            1 RES     
   18875 H6        -685.9936  -483.4840   671.8729 H6            1 RES     
   18876 H6        -679.0744  -479.0412   666.0104 H6            1 RES     
   18877 H6        -679.5043  -477.9507   667.3581 H6            1 RES     
   18878 H6        -680.4355  -476.6080   666.0080 H6            1 RES     
   18879 H6        -680.8723  -477.0121   664.3904 H6            1 RES     
   18880 H6        -682.8731  -476.6598   666.7469 H6            1 RES     
   18881 H6        -683.8180  -477.4910   664.6029 H6            1 RES     
   18882 H6        -684.5901  -476.0135   665.2476 H6            1 RES     
   18883 H6        -683.5193  -474.5543   663.5966 H6            1 RES     
   18884 H6        -682.4824  -475.8745   663.0244 H6            1 RES     
   18885 H6        -684.1896  -475.6355   661.3900 H6            1 RES     
   18886 H6        -684.5399  -477.1433   662.2565 H6            1 RES     
   18887 H6        -686.3180  -475.9910   663.5967 H6            1 RES     
   18888 H6        -686.6029  -475.9671   661.8280 H6            1 RES     
   18889 H6        -685.5648  -473.5864   663.5072 H6            1 RES     
   18890 H6        -687.2098  -473.8195   662.8351 H6            1 RES     
   18891 H6        -686.2766  -473.7852   660.4991 H6            1 RES     
   18892 H6        -685.9358  -472.2676   661.4141 H6            1 RES     
   18893 H6        -684.6271  -473.4635   661.1750 H6            1 RES     
   18894 H6        -681.6488  -474.7189   667.0943 H6            1 RES     
   18895 H6        -683.0944  -474.1891   666.1887 H6            1 RES     
   18896 H6        -681.4802  -474.1420   664.0824 H6            1 RES     
   18897 H6        -680.1546  -474.4840   665.2032 H6            1 RES     
   18898 H6        -680.3680  -472.1314   664.5643 H6            1 RES     
   18899 H6        -682.0476  -472.0359   665.1954 H6            1 RES     
   18900 H6        -679.5215  -472.5635   666.9185 H6            1 RES     
   18901 H6        -681.2186  -472.4282   667.5094 H6            1 RES     
   18902 H6        -681.3345  -470.0581   666.6832 H6            1 RES     
   18903 H6        -680.0753  -470.3470   667.9359 H6            1 RES     
   18904 H6        -679.5330  -470.1390   664.9037 H6            1 RES     
   18905 H6        -678.2917  -470.4254   666.1750 H6            1 RES     
   18906 H6        -678.3687  -468.0814   665.3456 H6            1 RES     
   18907 H6        -680.0871  -467.9199   665.8521 H6            1 RES     
   18908 H6        -679.3826  -468.2006   668.2562 H6            1 RES     
   18909 H6        -678.5077  -466.8521   667.4596 H6            1 RES     
   18910 H6        -677.6664  -468.4258   667.7153 H6            1 RES     
   18911 C0        -678.2391  -489.4808   672.7378 C0            1 RES     
   18912 C0        -678.0158  -491.0145   672.4203 C0            1 RES     
   18913 C0        -677.7784  -491.2062   671.1010 C0            1 RES     
   18914 S1        -677.4905  -492.8056   670.6814 S1            1 RES     
   18915 C0        -677.6590  -493.3608   672.2785 C0            1 RES     
   18916 C0        -678.0230  -492.2713   673.0827 C0            1 RES     
   18917 C0        -677.9189  -489.9788   670.4099 C0            1 RES     
   18918 C0        -678.1933  -489.0283   671.2742 C0            1 RES     
   18919 C0        -678.5492  -487.8103   670.6019 C0            1 RES     
   18920 C0        -678.5250  -487.9610   669.2273 C0            1 RES     
   18921 S1        -677.9869  -489.5876   668.6710 S1            1 RES     
   18922 H2        -678.2333  -492.4127   674.1112 H2            1 RES     
   18923 H2        -678.9191  -486.9601   671.0924 H2            1 RES     
   18924 N3        -676.9379  -496.2415   674.6500 N3            1 RES     
   18925 C0        -677.2822  -495.0135   674.1700 C0            1 RES     
   18926 C0        -677.3674  -494.7517   672.7766 C0            1 RES     
   18927 C0        -677.0890  -495.8384   671.9197 C0            1 RES     
   18928 N3        -677.1258  -495.7817   670.5630 N3            1 RES     
   18929 S1        -676.7194  -497.3216   670.1277 S1            1 RES     
   18930 N3        -676.4805  -498.0925   671.5651 N3            1 RES     
   18931 C0        -676.7348  -497.1068   672.4660 C0            1 RES     
   18932 C0        -676.6601  -497.2892   673.8359 C0            1 RES     
   18933 H4        -677.4544  -494.2424   674.8919 H4            1 RES     
   18934 C5        -670.5674  -497.2865   672.4426 C5            1 RES     
   18935 C5        -671.9024  -496.9008   671.8058 C5            1 RES     
   18936 C5        -672.8110  -496.0938   672.7488 C5            1 RES     
   18937 C5        -672.2455  -494.7062   673.1036 C5            1 RES     
   18938 C5        -673.2157  -493.9349   674.0114 C5            1 RES     
   18939 C5        -672.7311  -492.4883   674.2526 C5            1 RES     
   18940 C5        -673.6805  -491.6158   675.1161 C5            1 RES     
   18941 C5        -675.1114  -491.6771   674.5789 C5            1 RES     
   18942 C5        -676.1049  -490.5790   675.0350 C5            1 RES     
   18943 C5        -676.6193  -490.5733   676.5262 C5            1 RES     
   18944 C5        -677.6011  -491.7704   676.6587 C5            1 RES     
   18945 C5        -678.4273  -492.1842   677.8823 C5            1 RES     
   18946 C5        -679.2454  -493.4284   677.4029 C5            1 RES     
   18947 C5        -680.1890  -494.0965   678.4015 C5            1 RES     
   18948 C5        -681.4165  -493.2525   678.7215 C5            1 RES     
   18949 C5        -675.9123  -489.2631   674.2674 C5            1 RES     
   18950 C0        -677.2794  -488.6310   673.7776 C0            1 RES     
   18951 C5        -677.0783  -487.0661   673.5845 C5            1 RES     
   18952 C5        -678.0580  -486.0995   674.3371 C5            1 RES     
   18953 C5        -679.3748  -485.7928   673.5668 C5            1 RES     
   18954 C5        -679.2368  -484.7838   672.4021 C5            1 RES     
   18955 C5        -680.4809  -484.7212   671.4944 C5            1 RES     
   18956 C5        -681.7256  -484.0785   672.1263 C5            1 RES     
   18957 C5        -681.5641  -482.5916   672.4974 C5            1 RES     
   18958 C5        -681.2102  -481.7054   671.2989 C5            1 RES     
   18959 C5        -677.3559  -484.7951   674.8808 C5            1 RES     
   18960 C5        -676.4031  -484.0444   673.9099 C5            1 RES     
   18961 C5        -675.9337  -482.6608   674.4134 C5            1 RES     
   18962 C5        -675.1142  -482.6812   675.7190 C5            1 RES     
   18963 C5        -674.6193  -481.2767   676.1439 C5            1 RES     
   18964 C5        -673.5771  -480.6700   675.1786 C5            1 RES     
   18965 C5        -673.0875  -479.2672   675.5863 C5            1 RES     
   18966 C5        -672.3220  -479.2382   676.9092 C5            1 RES     
   18967 H6        -669.9628  -496.3894   672.6846 H6            1 RES     
   18968 H6        -669.9851  -497.9091   671.7311 H6            1 RES     
   18969 H6        -670.7417  -497.8757   673.3680 H6            1 RES     
   18970 H6        -671.7194  -496.3286   670.8701 H6            1 RES     
   18971 H6        -672.4329  -497.8400   671.5355 H6            1 RES     
   18972 H6        -673.7850  -495.9504   672.2294 H6            1 RES     
   18973 H6        -672.9971  -496.6805   673.6742 H6            1 RES     
   18974 H6        -672.0979  -494.1396   672.1568 H6            1 RES     
   18975 H6        -671.2699  -494.7962   673.6235 H6            1 RES     
   18976 H6        -674.1962  -493.9111   673.4898 H6            1 RES     
   18977 H6        -673.3346  -494.4665   674.9797 H6            1 RES     
   18978 H6        -671.7240  -492.4951   674.7222 H6            1 RES     
   18979 H6        -672.6378  -492.0010   673.2560 H6            1 RES     
   18980 H6        -673.6798  -491.9438   676.1777 H6            1 RES     
   18981 H6        -673.2955  -490.5743   675.0674 H6            1 RES     
   18982 H6        -675.5196  -492.6788   674.8095 H6            1 RES     
   18983 H6        -675.0637  -491.6159   673.4677 H6            1 RES     
   18984 H6        -676.9630  -490.8606   674.5417 H6            1 RES     
   18985 H6        -675.7708  -490.6172   677.2410 H6            1 RES     
   18986 H6        -677.2059  -489.6482   676.7201 H6            1 RES     
   18987 H6        -678.4045  -491.5279   675.9379 H6            1 RES     
   18988 H6        -677.0209  -492.6651   676.3765 H6            1 RES     
   18989 H6        -679.1039  -491.3574   678.1889 H6            1 RES     
   18990 H6        -677.7653  -492.4614   678.7286 H6            1 RES     
   18991 H6        -679.8467  -493.1685   676.4997 H6            1 RES     
   18992 H6        -678.5176  -494.2120   677.0974 H6            1 RES     
   18993 H6        -679.6388  -494.3728   679.3237 H6            1 RES     
   18994 H6        -680.5593  -495.0331   677.9239 H6            1 RES     
   18995 H6        -681.9751  -493.0193   677.7877 H6            1 RES     
   18996 H6        -681.1279  -492.3109   679.2272 H6            1 RES     
   18997 H6        -682.0894  -493.8341   679.3873 H6            1 RES     
   18998 H6        -675.3243  -489.4081   673.3353 H6            1 RES     
   18999 H6        -675.3073  -488.6111   674.9337 H6            1 RES     
   19000 H6        -676.1190  -486.8444   674.0895 H6            1 RES     
   19001 H6        -676.8661  -486.7697   672.5381 H6            1 RES     
   19002 H6        -678.3749  -486.6426   675.2561 H6            1 RES     
   19003 H6        -679.7817  -486.7619   673.2098 H6            1 RES     
   19004 H6        -680.1163  -485.3683   674.2777 H6            1 RES     
   19005 H6        -679.0143  -483.7693   672.7841 H6            1 RES     
   19006 H6        -678.3796  -485.0764   671.7671 H6            1 RES     
   19007 H6        -680.2185  -484.1608   670.5741 H6            1 RES     
   19008 H6        -680.7510  -485.7459   671.1664 H6            1 RES     
   19009 H6        -682.0239  -484.6520   673.0288 H6            1 RES     
   19010 H6        -682.5552  -484.1591   671.3902 H6            1 RES     
   19011 H6        -680.7959  -482.4651   673.2877 H6            1 RES     
   19012 H6        -682.5335  -482.2401   672.9107 H6            1 RES     
   19013 H6        -681.9700  -481.8159   670.4958 H6            1 RES     
   19014 H6        -681.1815  -480.6429   671.6178 H6            1 RES     
   19015 H6        -680.2086  -481.9579   670.8938 H6            1 RES     
   19016 H6        -676.7265  -485.0850   675.7498 H6            1 RES     
   19017 H6        -678.1430  -484.1106   675.2655 H6            1 RES     
   19018 H6        -676.8853  -483.8478   672.9431 H6            1 RES     
   19019 H6        -675.5127  -484.6730   673.6952 H6            1 RES     
   19020 H6        -675.3104  -482.2360   673.6016 H6            1 RES     
   19021 H6        -676.8188  -482.0006   674.5492 H6            1 RES     
   19022 H6        -674.2376  -483.3563   675.6114 H6            1 RES     
   19023 H6        -675.7603  -483.0703   676.5319 H6            1 RES     
   19024 H6        -675.4877  -480.5892   676.2433 H6            1 RES     
   19025 H6        -674.1485  -481.3833   677.1457 H6            1 RES     
   19026 H6        -674.0282  -480.5592   674.1727 H6            1 RES     
   19027 H6        -672.7029  -481.3522   675.0968 H6            1 RES     
   19028 H6        -672.3989  -478.9021   674.7924 H6            1 RES     
   19029 H6        -673.9489  -478.5672   675.6412 H6            1 RES     
   19030 H6        -672.9736  -479.5299   677.7571 H6            1 RES     
   19031 H6        -671.9582  -478.2054   677.0988 H6            1 RES     
   19032 H6        -671.4443  -479.9170   676.8627 H6            1 RES     
   19033 C0        -675.7550  -501.1271   677.5092 C0            1 RES     
   19034 C0        -675.9140  -502.5562   676.8493 C0            1 RES     
   19035 C0        -675.9206  -502.4676   675.4981 C0            1 RES     
   19036 S1        -676.0463  -503.9464   674.7145 S1            1 RES     
   19037 C0        -676.0917  -504.8268   676.1671 C0            1 RES     
   19038 C0        -676.0917  -503.9131   677.2309 C0            1 RES     
   19039 C0        -675.8960  -501.1060   675.1113 C0            1 RES     
   19040 C0        -675.8302  -500.3551   676.1872 C0            1 RES     
   19041 C0        -676.0129  -498.9693   675.8580 C0            1 RES     
   19042 C0        -676.2247  -498.7910   674.5029 C0            1 RES     
   19043 S1        -676.1349  -500.3073   673.5346 S1            1 RES     
   19044 H2        -676.1731  -504.2557   678.2298 H2            1 RES     
   19045 H2        -676.1159  -498.2087   676.5729 H2            1 RES     
   19046 N3        -675.6608  -508.2688   677.7193 N3            1 RES     
   19047 C0        -675.8017  -506.9212   677.5745 C0            1 RES     
   19048 C0        -676.0338  -506.3251   676.3063 C0            1 RES     
   19049 C0        -676.1238  -507.2086   675.2091 C0            1 RES     
   19050 N3        -676.3476  -506.8257   673.9251 N3            1 RES     
   19051 S1        -676.3485  -508.2648   673.1157 S1            1 RES     
   19052 N3        -676.0702  -509.3847   674.2931 N3            1 RES     
   19053 C0        -675.9721  -508.6124   675.4074 C0            1 RES     
   19054 C0        -675.7367  -509.1251   676.6711 C0            1 RES     
   19055 H4        -675.6965  -506.3257   678.4575 H4            1 RES     
   19056 C5        -670.0582  -509.8584   674.1649 C5            1 RES     
   19057 C5        -671.3591  -509.1049   673.8882 C5            1 RES     
   19058 C5        -671.9247  -508.3987   675.1322 C5            1 RES     
   19059 C5        -671.0298  -507.2562   675.6467 C5            1 RES     
   19060 C5        -671.6677  -506.5650   676.8614 C5            1 RES     
   19061 C5        -670.8550  -505.3250   677.2944 C5            1 RES     
   19062 C5        -671.4578  -504.5302   678.4833 C5            1 RES     
   19063 C5        -672.9321  -504.2106   678.2295 C5            1 RES     
   19064 C5        -673.5894  -503.0958   679.0816 C5            1 RES     
   19065 C5        -673.8647  -503.3546   680.6132 C5            1 RES     
   19066 C5        -675.0491  -504.3579   680.6851 C5            1 RES     
   19067 C5        -675.7546  -504.8993   681.9342 C5            1 RES     
   19068 C5        -676.8813  -505.8309   681.3777 C5            1 RES     
   19069 C5        -677.7877  -506.5412   682.3815 C5            1 RES     
   19070 C5        -678.7455  -505.5959   683.0960 C5            1 RES     
   19071 C5        -673.2356  -501.6899   678.5755 C5            1 RES     
   19072 C0        -674.4930  -500.7303   678.4963 C0            1 RES     
   19073 C5        -673.9929  -499.2244   678.5907 C5            1 RES     
   19074 C5        -674.6213  -498.3081   679.6981 C5            1 RES     
   19075 C5        -675.9411  -497.6015   679.2736 C5            1 RES     
   19076 C5        -675.7642  -496.3848   678.3342 C5            1 RES     
   19077 C5        -677.0863  -495.8916   677.7142 C5            1 RES     
   19078 C5        -678.0576  -495.2097   678.6906 C5            1 RES     
   19079 C5        -677.5290  -493.9054   679.3185 C5            1 RES     
   19080 C5        -677.1750  -492.8360   678.2803 C5            1 RES     
   19081 C5        -673.5842  -497.3138   680.3508 C5            1 RES     
   19082 C5        -672.6471  -496.5328   679.3887 C5            1 RES     
   19083 C5        -671.8238  -495.4126   680.0635 C5            1 RES     
   19084 C5        -670.8439  -495.8858   681.1556 C5            1 RES     
   19085 C5        -670.0031  -494.7314   681.7545 C5            1 RES     
   19086 C5        -669.0096  -494.1049   680.7512 C5            1 RES     
   19087 C5        -668.1769  -492.9472   681.3342 C5            1 RES     
   19088 C5        -667.2361  -493.3677   682.4633 C5            1 RES     
   19089 H6        -669.2470  -509.1646   674.4638 H6            1 RES     
   19090 H6        -669.7341  -510.3863   673.2434 H6            1 RES     
   19091 H6        -670.2158  -510.6107   674.9669 H6            1 RES     
   19092 H6        -671.1983  -508.3679   673.0712 H6            1 RES     
   19093 H6        -672.1120  -509.8451   673.5393 H6            1 RES     
   19094 H6        -672.9114  -507.9677   674.8495 H6            1 RES     
   19095 H6        -672.0932  -509.1465   675.9369 H6            1 RES     
   19096 H6        -670.9060  -506.5158   674.8247 H6            1 RES     
   19097 H6        -670.0301  -507.6365   675.9403 H6            1 RES     
   19098 H6        -672.6865  -506.2467   676.5536 H6            1 RES     
   19099 H6        -671.7532  -507.2821   677.7056 H6            1 RES     
   19100 H6        -669.8146  -505.6194   677.5506 H6            1 RES     
   19101 H6        -670.8080  -504.6390   676.4189 H6            1 RES     
   19102 H6        -671.3705  -505.0959   679.4356 H6            1 RES     
   19103 H6        -670.8707  -503.5910   678.5746 H6            1 RES     
   19104 H6        -673.5063  -505.1510   678.3254 H6            1 RES     
   19105 H6        -673.0370  -503.8965   677.1660 H6            1 RES     
   19106 H6        -674.5511  -503.0975   678.7153 H6            1 RES     
   19107 H6        -672.9491  -503.7148   681.1276 H6            1 RES     
   19108 H6        -674.2048  -502.4140   681.1001 H6            1 RES     
   19109 H6        -675.8795  -503.8143   680.1966 H6            1 RES     
   19110 H6        -674.7216  -505.2473   680.1208 H6            1 RES     
   19111 H6        -676.1859  -504.0636   682.5266 H6            1 RES     
   19112 H6        -675.0495  -505.4811   682.5632 H6            1 RES     
   19113 H6        -677.5398  -505.2627   680.6787 H6            1 RES     
   19114 H6        -676.3910  -506.6345   680.7852 H6            1 RES     
   19115 H6        -677.1793  -507.1206   683.1051 H6            1 RES     
   19116 H6        -678.4160  -507.2578   681.8034 H6            1 RES     
   19117 H6        -679.3730  -505.0535   682.3541 H6            1 RES     
   19118 H6        -678.1908  -504.8669   683.7178 H6            1 RES     
   19119 H6        -679.4212  -506.1919   683.7460 H6            1 RES     
   19120 H6        -672.8364  -501.7101   677.5383 H6            1 RES     
   19121 H6        -672.4136  -501.3312   679.2318 H6            1 RES     
   19122 H6        -672.9446  -499.3004   678.9366 H6            1 RES     
   19123 H6        -673.8792  -498.7298   677.6057 H6            1 RES     
   19124 H6        -674.9076  -498.9898   680.5306 H6            1 RES     
   19125 H6        -676.5938  -498.3714   678.8116 H6            1 RES     
   19126 H6        -676.4614  -497.2348   680.1848 H6            1 RES     
   19127 H6        -675.2762  -495.5453   678.8648 H6            1 RES     
   19128 H6        -675.0927  -496.6637   677.5006 H6            1 RES     
   19129 H6        -676.8491  -495.1835   676.8944 H6            1 RES     
   19130 H6        -677.6146  -496.7455   677.2426 H6            1 RES     
   19131 H6        -678.3349  -495.9198   679.4976 H6            1 RES     
   19132 H6        -678.9846  -494.9666   678.1267 H6            1 RES     
   19133 H6        -676.6435  -494.1068   679.9556 H6            1 RES     
   19134 H6        -678.3290  -493.4980   679.9729 H6            1 RES     
   19135 H6        -678.0509  -492.6177   677.6326 H6            1 RES     
   19136 H6        -676.8731  -491.9016   678.7973 H6            1 RES     
   19137 H6        -676.3215  -493.1563   677.6478 H6            1 RES     
   19138 H6        -672.9100  -497.9075   681.0053 H6            1 RES     
   19139 H6        -674.1412  -496.6134   681.0105 H6            1 RES     
   19140 H6        -673.2135  -496.0309   678.5930 H6            1 RES     
   19141 H6        -671.9534  -497.2383   678.8837 H6            1 RES     
   19142 H6        -671.2510  -494.9230   679.2510 H6            1 RES     
   19143 H6        -672.5173  -494.6591   680.4981 H6            1 RES     
   19144 H6        -670.1576  -496.6588   680.7468 H6            1 RES     
   19145 H6        -671.4309  -496.3375   681.9809 H6            1 RES     
   19146 H6        -670.6801  -493.9461   682.1565 H6            1 RES     
   19147 H6        -669.4233  -495.1536   682.6042 H6            1 RES     
   19148 H6        -669.5702  -493.6811   679.8946 H6            1 RES     
   19149 H6        -668.3234  -494.8904   680.3660 H6            1 RES     
   19150 H6        -667.5512  -492.5303   680.5141 H6            1 RES     
   19151 H6        -668.8510  -492.1406   681.6947 H6            1 RES     
   19152 H6        -667.8023  -493.7338   683.3430 H6            1 RES     
   19153 H6        -666.6360  -492.4897   682.7857 H6            1 RES     
   19154 H6        -666.5404  -494.1590   682.1120 H6            1 RES     
   19155 C0        -675.1402  -513.8232   679.2430 C0            1 RES     
   19156 C0        -675.6966  -515.0040   678.3491 C0            1 RES     
   19157 C0        -675.8836  -514.5972   677.0711 C0            1 RES     
   19158 S1        -676.4367  -515.8020   676.0419 S1            1 RES     
   19159 C0        -676.4542  -516.9803   677.2661 C0            1 RES     
   19160 C0        -676.1018  -516.3600   678.4733 C0            1 RES     
   19161 C0        -675.6260  -513.2087   676.9722 C0            1 RES     
   19162 C0        -675.2431  -512.7583   678.1454 C0            1 RES     
   19163 C0        -675.1720  -511.3241   678.1463 C0            1 RES     
   19164 C0        -675.5386  -510.7947   676.9223 C0            1 RES     
   19165 S1        -675.9189  -512.0292   675.6668 S1            1 RES     
   19166 H2        -676.1061  -516.9104   679.3783 H2            1 RES     
   19167 H2        -675.0034  -510.7491   679.0073 H2            1 RES     
   19168 N3        -676.5444  -520.7132   677.9731 N3            1 RES     
   19169 C0        -676.4139  -519.3665   678.1353 C0            1 RES     
   19170 C0        -676.6979  -518.4551   677.0837 C0            1 RES     
   19171 C0        -677.1357  -519.0228   675.8677 C0            1 RES     
   19172 N3        -677.4596  -518.3128   674.7558 N3            1 RES     
   19173 S1        -677.8876  -519.4954   673.6861 S1            1 RES     
   19174 N3        -677.6843  -520.8937   674.5351 N3            1 RES     
   19175 C0        -677.2599  -520.4378   675.7433 C0            1 RES     
   19176 C0        -676.9554  -521.2691   676.8070 C0            1 RES     
   19177 H4        -676.0546  -519.0258   679.0842 H4            1 RES     
   19178 C5        -671.9988  -522.3687   673.1620 C5            1 RES     
   19179 C5        -673.1349  -521.3552   673.2993 C5            1 RES     
   19180 C5        -673.3465  -520.8770   674.7459 C5            1 RES     
   19181 C5        -672.1621  -520.0643   675.3006 C5            1 RES     
   19182 C5        -672.4510  -519.5807   676.7300 C5            1 RES     
   19183 C5        -671.3372  -518.6411   677.2421 C5            1 RES     
   19184 C5        -671.5739  -518.0586   678.6610 C5            1 RES     
   19185 C5        -672.9667  -517.4348   678.7653 C5            1 RES     
   19186 C5        -673.2375  -516.4569   679.9364 C5            1 RES     
   19187 C5        -673.3323  -517.0198   681.4069 C5            1 RES     
   19188 C5        -674.6798  -517.7881   681.4991 C5            1 RES     
   19189 C5        -675.2923  -518.4785   682.7235 C5            1 RES     
   19190 C5        -676.6616  -519.0392   682.2158 C5            1 RES     
   19191 C5        -677.5405  -519.7976   683.2089 C5            1 RES     
   19192 C5        -678.1579  -518.8964   684.2710 C5            1 RES     
   19193 C5        -672.6701  -515.0554   679.6687 C5            1 RES     
   19194 C0        -673.6909  -513.8995   680.0293 C0            1 RES     
   19195 C5        -672.8722  -512.5706   680.3305 C5            1 RES     
   19196 C5        -673.1197  -511.8482   681.7007 C5            1 RES     
   19197 C5        -674.3059  -510.8411   681.6902 C5            1 RES     
   19198 C5        -674.0138  -509.4865   681.0021 C5            1 RES     
   19199 C5        -675.2767  -508.6364   680.7609 C5            1 RES     
   19200 C5        -675.9247  -508.0467   682.0235 C5            1 RES     
   19201 C5        -675.0428  -507.0422   682.7903 C5            1 RES     
   19202 C5        -674.6257  -505.8358   681.9433 C5            1 RES     
   19203 C5        -671.8093  -511.2349   682.3308 C5            1 RES     
   19204 C5        -670.8796  -510.4241   681.3862 C5            1 RES     
   19205 C5        -669.7455  -509.6584   682.1041 C5            1 RES     
   19206 C5        -668.7390  -510.5414   682.8683 C5            1 RES     
   19207 C5        -667.5920  -509.7280   683.5168 C5            1 RES     
   19208 C5        -666.6469  -509.0650   682.4905 C5            1 RES     
   19209 C5        -665.5092  -508.2432   683.1261 C5            1 RES     
   19210 C5        -664.5238  -509.0779   683.9439 C5            1 RES     
   19211 H6        -671.0230  -521.9189   673.4345 H6            1 RES     
   19212 H6        -671.9348  -522.7109   672.1076 H6            1 RES     
   19213 H6        -672.1934  -523.2504   673.8090 H6            1 RES     
   19214 H6        -672.9428  -520.4851   672.6340 H6            1 RES     
   19215 H6        -674.0717  -521.8478   672.9582 H6            1 RES     
   19216 H6        -674.2489  -520.2253   674.7516 H6            1 RES     
   19217 H6        -673.5501  -521.7531   675.3986 H6            1 RES     
   19218 H6        -672.0057  -519.1833   674.6384 H6            1 RES     
   19219 H6        -671.2346  -520.6725   675.3133 H6            1 RES     
   19220 H6        -673.4123  -519.0251   676.6947 H6            1 RES     
   19221 H6        -672.5621  -520.4514   677.4110 H6            1 RES     
   19222 H6        -670.3576  -519.1654   677.2285 H6            1 RES     
   19223 H6        -671.2745  -517.7859   676.5321 H6            1 RES     
   19224 H6        -671.4698  -518.8406   679.4434 H6            1 RES     
   19225 H6        -670.7928  -517.2857   678.8271 H6            1 RES     
   19226 H6        -673.7080  -518.2555   678.7761 H6            1 RES     
   19227 H6        -673.1581  -516.8636   677.8283 H6            1 RES     
   19228 H6        -674.2205  -516.2031   679.7689 H6            1 RES     
   19229 H6        -672.4492  -517.6465   681.6519 H6            1 RES     
   19230 H6        -673.3878  -516.1772   682.1311 H6            1 RES     
   19231 H6        -675.4377  -517.0072   681.3000 H6            1 RES     
   19232 H6        -674.6370  -518.5612   680.7134 H6            1 RES     
   19233 H6        -675.4428  -517.7453   683.5451 H6            1 RES     
   19234 H6        -674.6429  -519.3074   683.0737 H6            1 RES     
   19235 H6        -677.2794  -518.2150   681.7868 H6            1 RES     
   19236 H6        -676.4475  -519.7521   681.3894 H6            1 RES     
   19237 H6        -676.9699  -520.6296   683.6689 H6            1 RES     
   19238 H6        -678.3858  -520.2350   682.6286 H6            1 RES     
   19239 H6        -678.7574  -518.0920   683.7896 H6            1 RES     
   19240 H6        -677.3746  -518.4447   684.9099 H6            1 RES     
   19241 H6        -678.8417  -519.5020   684.9035 H6            1 RES     
   19242 H6        -672.4421  -514.8981   678.5922 H6            1 RES     
   19243 H6        -671.7027  -515.0125   680.2141 H6            1 RES     
   19244 H6        -671.8251  -512.9091   680.4459 H6            1 RES     
   19245 H6        -672.8023  -511.8840   679.4636 H6            1 RES     
   19246 H6        -673.4189  -512.6472   682.4162 H6            1 RES     
   19247 H6        -675.1689  -511.3527   681.2153 H6            1 RES     
   19248 H6        -674.5954  -510.6161   682.7395 H6            1 RES     
   19249 H6        -673.2847  -508.8958   681.5886 H6            1 RES     
   19250 H6        -673.5481  -509.6724   680.0161 H6            1 RES     
   19251 H6        -675.0174  -507.8066   680.0724 H6            1 RES     
   19252 H6        -676.0389  -509.2477   680.2357 H6            1 RES     
   19253 H6        -676.2251  -508.8684   682.7069 H6            1 RES     
   19254 H6        -676.8513  -507.5182   681.7094 H6            1 RES     
   19255 H6        -674.1366  -507.5411   683.1911 H6            1 RES     
   19256 H6        -675.6316  -506.6684   683.6550 H6            1 RES     
   19257 H6        -675.5206  -505.3200   681.5340 H6            1 RES     
   19258 H6        -674.0581  -505.1187   682.5719 H6            1 RES     
   19259 H6        -673.9634  -506.1411   681.1071 H6            1 RES     
   19260 H6        -671.1885  -512.0756   682.7089 H6            1 RES     
   19261 H6        -672.1001  -510.6248   683.2135 H6            1 RES     
   19262 H6        -671.4368  -509.6564   680.8331 H6            1 RES     
   19263 H6        -670.4350  -511.0998   680.6247 H6            1 RES     
   19264 H6        -669.2078  -509.0979   681.3138 H6            1 RES     
   19265 H6        -670.1900  -508.9202   682.8078 H6            1 RES     
   19266 H6        -668.3019  -511.3031   682.1867 H6            1 RES     
   19267 H6        -669.2806  -511.0663   683.6813 H6            1 RES     
   19268 H6        -668.0185  -508.9546   684.1925 H6            1 RES     
   19269 H6        -666.9968  -510.4348   684.1354 H6            1 RES     
   19270 H6        -667.2242  -508.3585   681.8618 H6            1 RES     
   19271 H6        -666.2089  -509.8442   681.8291 H6            1 RES     
   19272 H6        -664.9370  -507.7597   682.3035 H6            1 RES     
   19273 H6        -665.9346  -507.4401   683.7657 H6            1 RES     
   19274 H6        -665.0190  -509.5375   684.8226 H6            1 RES     
   19275 H6        -663.7091  -508.4207   684.3171 H6            1 RES     
   19276 H6        -664.0730  -509.8724   683.3121 H6            1 RES     
   19277 C0        -677.0035  -526.4733   678.2055 C0            1 RES     
   19278 C0        -677.9252  -527.2917   677.2138 C0            1 RES     
   19279 C0        -678.2076  -526.5667   676.1055 C0            1 RES     
   19280 S1        -679.1513  -527.3765   674.9783 S1            1 RES     
   19281 C0        -679.2392  -528.7901   675.9171 C0            1 RES     
   19282 C0        -678.5880  -528.5459   677.1348 C0            1 RES     
   19283 C0        -677.6768  -525.2617   676.2437 C0            1 RES     
   19284 C0        -677.0375  -525.1771   677.3882 C0            1 RES     
   19285 C0        -676.6622  -523.8194   677.6674 C0            1 RES     
   19286 C0        -677.0839  -522.9587   676.6704 C0            1 RES     
   19287 S1        -677.9004  -523.7733   675.2867 S1            1 RES     
   19288 H2        -678.5761  -529.2860   677.8924 H2            1 RES     
   19289 H2        -676.2493  -523.5042   678.5787 H2            1 RES     
   19290 N3        -680.0195  -532.5089   675.8534 N3            1 RES     
   19291 C0        -679.5817  -531.2836   676.2582 C0            1 RES     
   19292 C0        -679.8166  -530.1132   675.4886 C0            1 RES     
   19293 C0        -680.5402  -530.2901   674.2896 C0            1 RES     
   19294 N3        -680.8656  -529.2909   673.4288 N3            1 RES     
   19295 S1        -681.6896  -530.0917   672.2432 S1            1 RES     
   19296 N3        -681.6667  -531.6651   672.7347 N3            1 RES     
   19297 C0        -680.9810  -531.5907   673.9060 C0            1 RES     
   19298 C0        -680.7075  -532.6910   674.6997 C0            1 RES     
   19299 H4        -679.0219  -531.2463   677.1696 H4            1 RES     
   19300 C5        -676.6944  -533.7437   670.0252 C5            1 RES     
   19301 C5        -677.5546  -532.6091   670.5814 C5            1 RES     
   19302 C5        -677.4430  -532.4587   672.1081 C5            1 RES     
   19303 C5        -676.0437  -532.0214   672.5788 C5            1 RES     
   19304 C5        -676.0083  -531.8483   674.1050 C5            1 RES     
   19305 C5        -674.6563  -531.2673   674.5742 C5            1 RES     
   19306 C5        -674.5508  -531.0063   676.1004 C5            1 RES     
   19307 C5        -675.7471  -530.1911   676.5948 C5            1 RES     
   19308 C5        -675.6266  -529.4876   677.9701 C5            1 RES     
   19309 C5        -675.6212  -530.3582   679.2856 C5            1 RES     
   19310 C5        -677.0731  -530.8782   679.4763 C5            1 RES     
   19311 C5        -677.6313  -531.7215   680.6288 C5            1 RES     
   19312 C5        -679.1484  -531.8968   680.2900 C5            1 RES     
   19313 C5        -680.0125  -532.7034   681.2577 C5            1 RES     
   19314 C5        -680.2591  -531.9866   682.5794 C5            1 RES     
   19315 C5        -674.8187  -528.1843   677.8895 C5            1 RES     
   19316 C0        -675.5042  -526.9867   678.6668 C0            1 RES     
   19317 C5        -674.3852  -525.9320   679.0693 C5            1 RES     
   19318 C5        -674.2674  -525.5239   680.5794 C5            1 RES     
   19319 C5        -675.1992  -524.3515   681.0019 C5            1 RES     
   19320 C5        -674.7293  -522.9449   680.5609 C5            1 RES     
   19321 C5        -675.8028  -521.8542   680.7447 C5            1 RES     
   19322 C5        -676.1160  -521.4773   682.2012 C5            1 RES     
   19323 C5        -674.9365  -520.8541   682.9727 C5            1 RES     
   19324 C5        -674.4010  -519.5732   682.3250 C5            1 RES     
   19325 C5        -672.7778  -525.3170   681.0577 C5            1 RES     
   19326 C5        -671.8463  -524.4808   680.1374 C5            1 RES     
   19327 C5        -670.4815  -524.1183   680.7649 C5            1 RES     
   19328 C5        -669.5854  -525.3198   681.1258 C5            1 RES     
   19329 C5        -668.2081  -524.8975   681.6938 C5            1 RES     
   19330 C5        -667.3054  -524.1857   680.6621 C5            1 RES     
   19331 C5        -665.9373  -523.7507   681.2213 C5            1 RES     
   19332 C5        -665.0433  -524.9151   681.6475 C5            1 RES     
   19333 H6        -675.6157  -533.5496   670.1912 H6            1 RES     
   19334 H6        -676.8614  -533.8314   668.9310 H6            1 RES     
   19335 H6        -676.9751  -534.7058   670.5043 H6            1 RES     
   19336 H6        -677.2814  -531.6534   670.0828 H6            1 RES     
   19337 H6        -678.6149  -532.8346   670.3333 H6            1 RES     
   19338 H6        -678.1744  -531.6794   672.4194 H6            1 RES     
   19339 H6        -677.7305  -533.4152   672.5955 H6            1 RES     
   19340 H6        -675.8022  -531.0497   672.0924 H6            1 RES     
   19341 H6        -675.2762  -532.7679   672.2893 H6            1 RES     
   19342 H6        -676.8230  -531.1407   674.3687 H6            1 RES     
   19343 H6        -676.2010  -532.8226   674.6029 H6            1 RES     
   19344 H6        -673.8244  -531.9365   674.2665 H6            1 RES     
   19345 H6        -674.5179  -530.2925   674.0546 H6            1 RES     
   19346 H6        -674.5018  -531.9576   676.6724 H6            1 RES     
   19347 H6        -673.6068  -530.4441   676.2673 H6            1 RES     
   19348 H6        -676.6367  -530.8481   676.5804 H6            1 RES     
   19349 H6        -675.9482  -529.3894   675.8481 H6            1 RES     
   19350 H6        -676.5464  -529.0332   678.0496 H6            1 RES     
   19351 H6        -674.8662  -531.1698   679.2237 H6            1 RES     
   19352 H6        -675.3879  -529.7154   680.1630 H6            1 RES     
   19353 H6        -677.6675  -529.9521   679.5895 H6            1 RES     
   19354 H6        -677.3130  -531.4377   678.5564 H6            1 RES     
   19355 H6        -677.4985  -531.1898   681.5957 H6            1 RES     
   19356 H6        -677.1295  -532.7103   680.6717 H6            1 RES     
   19357 H6        -679.6321  -530.8992   680.1644 H6            1 RES     
   19358 H6        -679.2159  -532.4191   679.3103 H6            1 RES     
   19359 H6        -679.5713  -533.7076   681.4206 H6            1 RES     
   19360 H6        -681.0079  -532.8354   680.7738 H6            1 RES     
   19361 H6        -680.7373  -530.9987   682.3959 H6            1 RES     
   19362 H6        -679.3119  -531.8439   683.1344 H6            1 RES     
   19363 H6        -680.9556  -532.5957   683.1945 H6            1 RES     
   19364 H6        -674.7240  -527.8182   676.8442 H6            1 RES     
   19365 H6        -673.7948  -528.4423   678.2363 H6            1 RES     
   19366 H6        -673.4292  -526.4662   678.9104 H6            1 RES     
   19367 H6        -674.2989  -525.0823   678.3635 H6            1 RES     
   19368 H6        -674.6214  -526.4049   681.1612 H6            1 RES     
   19369 H6        -676.2121  -524.5763   680.6074 H6            1 RES     
   19370 H6        -675.2757  -524.3351   682.1107 H6            1 RES     
   19371 H6        -673.8124  -522.6475   681.1044 H6            1 RES     
   19372 H6        -674.4650  -522.9698   679.4871 H6            1 RES     
   19373 H6        -675.4767  -520.9433   680.2029 H6            1 RES     
   19374 H6        -676.7471  -522.1801   680.2623 H6            1 RES     
   19375 H6        -676.4807  -522.3721   682.7478 H6            1 RES     
   19376 H6        -676.9442  -520.7354   682.1851 H6            1 RES     
   19377 H6        -674.1088  -521.5846   683.0821 H6            1 RES     
   19378 H6        -675.2975  -520.5992   683.9920 H6            1 RES     
   19379 H6        -675.2154  -518.8265   682.2087 H6            1 RES     
   19380 H6        -673.6069  -519.1368   682.9655 H6            1 RES     
   19381 H6        -673.9502  -519.7823   681.3329 H6            1 RES     
   19382 H6        -672.3021  -526.3188   681.1305 H6            1 RES     
   19383 H6        -672.7979  -524.8929   682.0852 H6            1 RES     
   19384 H6        -672.3020  -523.5183   679.8696 H6            1 RES     
   19385 H6        -671.6739  -525.0233   679.1835 H6            1 RES     
   19386 H6        -669.9592  -523.4892   680.0171 H6            1 RES     
   19387 H6        -670.6490  -523.5023   681.6761 H6            1 RES     
   19388 H6        -669.4267  -525.9621   680.2325 H6            1 RES     
   19389 H6        -670.1004  -525.9196   681.9034 H6            1 RES     
   19390 H6        -668.3549  -524.2443   682.5819 H6            1 RES     
   19391 H6        -667.6930  -525.8240   682.0297 H6            1 RES     
   19392 H6        -667.8047  -523.2602   680.3131 H6            1 RES     
   19393 H6        -667.1467  -524.8498   679.7845 H6            1 RES     
   19394 H6        -665.4029  -523.1935   680.4201 H6            1 RES     
   19395 H6        -666.0820  -523.0608   682.0804 H6            1 RES     
   19396 H6        -665.4898  -525.4763   682.4926 H6            1 RES     
   19397 H6        -664.0610  -524.5185   681.9831 H6            1 RES     
   19398 H6        -664.8710  -525.6030   680.7927 H6            1 RES     
   19399 C0        -681.6595  -537.9872   674.9923 C0            1 RES     
   19400 C0        -682.8709  -538.3723   674.0504 C0            1 RES     
   19401 C0        -683.1524  -537.3668   673.1882 C0            1 RES     
   19402 S1        -684.4032  -537.7075   672.1222 S1            1 RES     
   19403 C0        -684.6515  -539.2658   672.7527 C0            1 RES     
   19404 C0        -683.7906  -539.4358   673.8465 C0            1 RES     
   19405 C0        -682.3405  -536.2457   673.4846 C0            1 RES     
   19406 C0        -681.5361  -536.5487   674.4780 C0            1 RES     
   19407 C0        -680.8422  -535.3835   674.9504 C0            1 RES     
   19408 C0        -681.2128  -534.2504   674.2492 C0            1 RES     
   19409 S1        -682.3797  -534.5571   672.9116 S1            1 RES     
   19410 H2        -683.8254  -540.3250   674.4210 H2            1 RES     
   19411 H2        -680.2416  -535.3711   675.8102 H2            1 RES     
   19412 N3        -686.2092  -542.6672   672.0844 N3            1 RES     
   19413 C0        -685.4648  -541.6693   672.6385 C0            1 RES     
   19414 C0        -685.5551  -540.3271   672.1828 C0            1 RES     
   19415 C0        -686.4688  -540.0845   671.1345 C0            1 RES     
   19416 N3        -686.6966  -538.8683   670.5739 N3            1 RES     
   19417 S1        -687.8386  -539.2076   669.4307 S1            1 RES     
   19418 N3        -688.0801  -540.8317   669.5780 N3            1 RES     
   19419 C0        -687.2290  -541.1589   670.5861 C0            1 RES     
   19420 C0        -687.0828  -542.4466   671.0717 C0            1 RES     
   19421 H4        -684.7815  -541.9482   673.4136 H4            1 RES     
   19422 C5        -684.1229  -543.0448   665.5995 C5            1 RES     
   19423 C5        -684.6290  -541.9421   666.5294 C5            1 RES     
   19424 C5        -684.2636  -542.1807   668.0044 C5            1 RES     
   19425 C5        -682.7494  -542.1197   668.2769 C5            1 RES     
   19426 C5        -682.4527  -542.3231   669.7705 C5            1 RES     
   19427 C5        -680.9537  -542.1161   670.0798 C5            1 RES     
   19428 C5        -680.5706  -542.2477   671.5780 C5            1 RES     
   19429 C5        -681.4786  -541.3769   672.4481 C5            1 RES     
   19430 C5        -681.0088  -541.0525   673.8885 C5            1 RES     
   19431 C5        -680.9953  -542.1977   674.9733 C5            1 RES     
   19432 C5        -682.4803  -542.4857   675.3292 C5            1 RES     
   19433 C5        -683.0293  -543.4674   676.3711 C5            1 RES     
   19434 C5        -684.5818  -543.2888   676.3013 C5            1 RES     
   19435 C5        -685.4457  -544.1381   677.2320 C5            1 RES     
   19436 C5        -685.3355  -543.7239   678.6942 C5            1 RES     
   19437 C5        -679.9620  -539.9295   673.9215 C5            1 RES     
   19438 C0        -680.2532  -538.8500   675.0430 C0            1 RES     
   19439 C5        -678.8878  -538.1338   675.4294 C5            1 RES     
   19440 C5        -678.4638  -538.1232   676.9397 C5            1 RES     
   19441 C5        -679.0506  -536.9402   677.7628 C5            1 RES     
   19442 C5        -678.3614  -535.5737   677.5355 C5            1 RES     
   19443 C5        -679.1379  -534.3874   678.1399 C5            1 RES     
   19444 C5        -679.1446  -534.3183   679.6751 C5            1 RES     
   19445 C5        -677.7585  -534.1127   680.3163 C5            1 RES     
   19446 C5        -677.0633  -532.8288   679.8524 C5            1 RES     
   19447 C5        -676.9105  -538.3000   677.1551 C5            1 RES     
   19448 C5        -675.9682  -537.4455   676.2630 C5            1 RES     
   19449 C5        -674.4801  -537.4872   676.6774 C5            1 RES     
   19450 C5        -673.8182  -538.8778   676.6073 C5            1 RES     
   19451 C5        -672.3141  -538.8504   676.9744 C5            1 RES     
   19452 C5        -671.4426  -538.0834   675.9555 C5            1 RES     
   19453 C5        -669.9459  -538.0401   676.3183 C5            1 RES     
   19454 C5        -669.2685  -539.4105   676.3190 C5            1 RES     
   19455 H6        -683.0153  -543.0876   665.5914 H6            1 RES     
   19456 H6        -684.4646  -542.8394   664.5632 H6            1 RES     
   19457 H6        -684.5288  -544.0287   665.9175 H6            1 RES     
   19458 H6        -684.2345  -540.9584   666.1929 H6            1 RES     
   19459 H6        -685.7377  -541.9131   666.4488 H6            1 RES     
   19460 H6        -684.7573  -541.3819   668.6022 H6            1 RES     
   19461 H6        -684.6736  -543.1601   668.3329 H6            1 RES     
   19462 H6        -682.3804  -541.1180   667.9613 H6            1 RES     
   19463 H6        -682.2104  -542.8986   667.6996 H6            1 RES     
   19464 H6        -683.0493  -541.5670   670.3241 H6            1 RES     
   19465 H6        -682.7735  -543.3385   670.0872 H6            1 RES     
   19466 H6        -680.3388  -542.8281   669.4886 H6            1 RES     
   19467 H6        -680.6884  -541.0855   669.7528 H6            1 RES     
   19468 H6        -680.6421  -543.3012   671.9242 H6            1 RES     
   19469 H6        -679.5142  -541.9156   671.6716 H6            1 RES     
   19470 H6        -682.4802  -541.8454   672.4713 H6            1 RES     
   19471 H6        -681.6117  -540.3982   671.9330 H6            1 RES     
   19472 H6        -681.7882  -540.4762   674.2339 H6            1 RES     
   19473 H6        -680.4488  -543.0907   674.6039 H6            1 RES     
   19474 H6        -680.5030  -541.8329   675.9018 H6            1 RES     
   19475 H6        -682.8396  -541.5236   675.7404 H6            1 RES     
   19476 H6        -682.9674  -542.7597   674.3782 H6            1 RES     
   19477 H6        -682.6447  -543.2123   677.3822 H6            1 RES     
   19478 H6        -682.7498  -544.5103   676.1148 H6            1 RES     
   19479 H6        -684.8543  -542.2211   676.4766 H6            1 RES     
   19480 H6        -684.9034  -543.5433   675.2674 H6            1 RES     
   19481 H6        -685.2102  -545.2134   677.0993 H6            1 RES     
   19482 H6        -686.5066  -543.9749   676.9315 H6            1 RES     
   19483 H6        -685.6133  -542.6527   678.8109 H6            1 RES     
   19484 H6        -684.3083  -543.8854   679.0743 H6            1 RES     
   19485 H6        -686.0473  -544.3301   679.2944 H6            1 RES     
   19486 H6        -679.9467  -539.3481   672.9742 H6            1 RES     
   19487 H6        -678.9772  -540.4377   674.0054 H6            1 RES     
   19488 H6        -678.1023  -538.7738   674.9846 H6            1 RES     
   19489 H6        -678.7272  -537.1693   674.9081 H6            1 RES     
   19490 H6        -678.9080  -539.0411   677.3868 H6            1 RES     
   19491 H6        -680.1351  -536.8839   677.5326 H6            1 RES     
   19492 H6        -678.9572  -537.1745   678.8452 H6            1 RES     
   19493 H6        -677.3322  -535.5793   677.9418 H6            1 RES     
   19494 H6        -678.2701  -535.3888   676.4487 H6            1 RES     
   19495 H6        -678.7083  -533.4454   677.7425 H6            1 RES     
   19496 H6        -680.1906  -534.4188   677.7916 H6            1 RES     
   19497 H6        -679.6073  -535.2393   680.0877 H6            1 RES     
   19498 H6        -679.7883  -533.4606   679.9695 H6            1 RES     
   19499 H6        -677.0992  -534.9817   680.1137 H6            1 RES     
   19500 H6        -677.9021  -534.0481   681.4160 H6            1 RES     
   19501 H6        -677.7074  -531.9451   680.0490 H6            1 RES     
   19502 H6        -676.1086  -532.7030   680.4038 H6            1 RES     
   19503 H6        -676.8192  -532.8718   678.7709 H6            1 RES     
   19504 H6        -676.6545  -539.3578   676.9299 H6            1 RES     
   19505 H6        -676.6875  -538.1353   678.2318 H6            1 RES     
   19506 H6        -676.2422  -536.3825   676.2893 H6            1 RES     
   19507 H6        -676.0585  -537.7674   675.2037 H6            1 RES     
   19508 H6        -673.9517  -536.7999   675.9872 H6            1 RES     
   19509 H6        -674.3757  -537.0857   677.7097 H6            1 RES     
   19510 H6        -673.9342  -539.3071   675.5885 H6            1 RES     
   19511 H6        -674.3289  -539.5454   677.3306 H6            1 RES     
   19512 H6        -672.1851  -538.4116   677.9881 H6            1 RES     
   19513 H6        -671.9650  -539.9057   677.0094 H6            1 RES     
   19514 H6        -671.7786  -537.0288   675.9046 H6            1 RES     
   19515 H6        -671.5609  -538.5372   674.9473 H6            1 RES     
   19516 H6        -669.4291  -537.4110   675.5601 H6            1 RES     
   19517 H6        -669.8113  -537.5597   677.3114 H6            1 RES     
   19518 H6        -669.6948  -540.0692   677.1019 H6            1 RES     
   19519 H6        -668.1856  -539.2832   676.5335 H6            1 RES     
   19520 H6        -669.3754  -539.8948   675.3253 H6            1 RES     
   19521 C0        -689.0908  -547.4098   670.4574 C0            1 RES     
   19522 C0        -690.4820  -547.3418   669.7072 C0            1 RES     
   19523 C0        -690.6663  -546.1270   669.1380 C0            1 RES     
   19524 S1        -692.1044  -545.9803   668.2852 S1            1 RES     
   19525 C0        -692.5840  -547.5755   668.6211 C0            1 RES     
   19526 C0        -691.6275  -548.1485   669.4714 C0            1 RES     
   19527 C0        -689.5989  -545.2684   669.4950 C0            1 RES     
   19528 C0        -688.7401  -545.9348   670.2327 C0            1 RES     
   19529 C0        -687.7513  -545.0552   670.7902 C0            1 RES     
   19530 C0        -687.9706  -543.7411   670.4188 C0            1 RES     
   19531 S1        -689.3605  -543.5120   669.2961 S1            1 RES     
   19532 H2        -691.7662  -549.1285   669.8487 H2            1 RES     
   19533 H2        -687.0416  -545.3527   671.5030 H2            1 RES     
   19534 N3        -694.9138  -550.3938   667.5860 N3            1 RES     
   19535 C0        -693.8999  -549.7024   668.1782 C0            1 RES     
   19536 C0        -693.7676  -548.2959   668.0313 C0            1 RES     
   19537 C0        -694.7530  -547.6551   667.2495 C0            1 RES     
   19538 N3        -694.7958  -546.3200   667.0025 N3            1 RES     
   19539 S1        -696.1399  -546.1726   666.0551 S1            1 RES     
   19540 N3        -696.6985  -547.7171   665.9123 N3            1 RES     
   19541 C0        -695.7977  -548.4183   666.6502 C0            1 RES     
   19542 C0        -695.8600  -549.7896   666.8263 C0            1 RES     
   19543 H4        -693.1852  -550.2726   668.7346 H4            1 RES     
   19544 C5        -693.9377  -549.5795   660.8829 C5            1 RES     
   19545 C5        -694.0534  -548.6582   662.0972 C5            1 RES     
   19546 C5        -693.5337  -549.3005   663.3946 C5            1 RES     
   19547 C5        -692.0182  -549.5721   663.3780 C5            1 RES     
   19548 C5        -691.5546  -550.1732   664.7137 C5            1 RES     
   19549 C5        -690.0171  -550.3114   664.7652 C5            1 RES     
   19550 C5        -689.4540  -550.8601   666.1033 C5            1 RES     
   19551 C5        -690.0162  -550.0758   667.2901 C5            1 RES     
   19552 C5        -689.2804  -550.1903   668.6489 C5            1 RES     
   19553 C5        -689.3520  -551.5445   669.4547 C5            1 RES     
   19554 C5        -690.7950  -551.6442   670.0227 C5            1 RES     
   19555 C5        -691.3810  -552.7336   670.9286 C5            1 RES     
   19556 C5        -692.8524  -552.2745   671.1958 C5            1 RES     
   19557 C5        -693.7306  -553.1557   672.0823 C5            1 RES     
   19558 C5        -693.3197  -553.1266   673.5492 C5            1 RES     
   19559 C5        -688.0248  -549.3084   668.7082 C5            1 RES     
   19560 C0        -687.9096  -548.4924   670.0606 C0            1 RES     
   19561 C5        -686.3809  -548.1390   670.3153 C5            1 RES     
   19562 C5        -685.7462  -548.5619   671.6861 C5            1 RES     
   19563 C5        -685.9385  -547.5243   672.8297 C5            1 RES     
   19564 C5        -685.0145  -546.2854   672.7573 C5            1 RES     
   19565 C5        -685.4215  -545.1595   673.7281 C5            1 RES     
   19566 C5        -685.1865  -545.4571   675.2174 C5            1 RES     
   19567 C5        -683.7093  -545.6557   675.6088 C5            1 RES     
   19568 C5        -682.8322  -544.4405   675.2914 C5            1 RES     
   19569 C5        -684.2522  -549.0540   671.5589 C5            1 RES     
   19570 C5        -683.2914  -548.1907   670.6955 C5            1 RES     
   19571 C5        -681.8020  -548.5895   670.7993 C5            1 RES     
   19572 C5        -681.4705  -550.0174   670.3220 C5            1 RES     
   19573 C5        -679.9579  -550.3418   670.3914 C5            1 RES     
   19574 C5        -679.1029  -549.5195   669.4020 C5            1 RES     
   19575 C5        -677.5947  -549.8264   669.4720 C5            1 RES     
   19576 C5        -677.2333  -551.2545   669.0638 C5            1 RES     
   19577 H6        -692.8784  -549.8124   660.6538 H6            1 RES     
   19578 H6        -694.3768  -549.0772   659.9952 H6            1 RES     
   19579 H6        -694.4930  -550.5240   661.0658 H6            1 RES     
   19580 H6        -693.5120  -547.7074   661.8986 H6            1 RES     
   19581 H6        -695.1297  -548.4171   662.2385 H6            1 RES     
   19582 H6        -693.7515  -548.5929   664.2259 H6            1 RES     
   19583 H6        -694.0904  -550.2425   663.5893 H6            1 RES     
   19584 H6        -691.4944  -548.6047   663.2081 H6            1 RES     
   19585 H6        -691.7495  -550.2735   662.5619 H6            1 RES     
   19586 H6        -691.8873  -549.4778   665.5136 H6            1 RES     
   19587 H6        -692.0345  -551.1624   664.8727 H6            1 RES     
   19588 H6        -689.6628  -550.9589   663.9346 H6            1 RES     
   19589 H6        -689.5890  -549.2955   664.6101 H6            1 RES     
   19590 H6        -689.6971  -551.9363   666.2349 H6            1 RES     
   19591 H6        -688.3490  -550.7500   666.0580 H6            1 RES     
   19592 H6        -691.0801  -550.3535   667.4092 H6            1 RES     
   19593 H6        -690.0117  -548.9950   667.0203 H6            1 RES     
   19594 H6        -689.8589  -549.5852   669.2473 H6            1 RES     
   19595 H6        -689.0696  -552.4057   668.8134 H6            1 RES     
   19596 H6        -688.6615  -551.5028   670.3259 H6            1 RES     
   19597 H6        -690.8756  -550.7597   670.6823 H6            1 RES     
   19598 H6        -691.4644  -551.5948   669.1474 H6            1 RES     
   19599 H6        -690.8057  -552.7974   671.8774 H6            1 RES     
   19600 H6        -691.3718  -553.7180   670.4166 H6            1 RES     
   19601 H6        -692.8614  -551.2482   671.6337 H6            1 RES     
   19602 H6        -693.3700  -552.2157   670.2131 H6            1 RES     
   19603 H6        -693.7526  -554.1929   671.6908 H6            1 RES     
   19604 H6        -694.7646  -552.7427   672.0306 H6            1 RES     
   19605 H6        -693.3418  -552.0822   673.9326 H6            1 RES     
   19606 H6        -692.3061  -553.5511   673.6842 H6            1 RES     
   19607 H6        -694.0480  -553.7237   674.1387 H6            1 RES     
   19608 H6        -688.0256  -548.5306   667.9142 H6            1 RES     
   19609 H6        -687.1699  -549.9864   668.4964 H6            1 RES     
   19610 H6        -685.8249  -548.7824   669.6073 H6            1 RES     
   19611 H6        -686.0967  -547.1218   669.9803 H6            1 RES     
   19612 H6        -686.3052  -549.4674   672.0138 H6            1 RES     
   19613 H6        -687.0077  -547.2260   672.8283 H6            1 RES     
   19614 H6        -685.7385  -548.0217   673.8034 H6            1 RES     
   19615 H6        -683.9618  -546.5675   672.9489 H6            1 RES     
   19616 H6        -685.0473  -545.8666   671.7341 H6            1 RES     
   19617 H6        -684.8641  -544.2403   673.4559 H6            1 RES     
   19618 H6        -686.4962  -544.9224   673.5894 H6            1 RES     
   19619 H6        -685.7692  -546.3540   675.5149 H6            1 RES     
   19620 H6        -685.5813  -544.5948   675.7981 H6            1 RES     
   19621 H6        -683.2883  -546.5532   675.1110 H6            1 RES     
   19622 H6        -683.6718  -545.8300   676.7054 H6            1 RES     
   19623 H6        -683.2362  -543.5300   675.7836 H6            1 RES     
   19624 H6        -681.8019  -544.6185   675.6631 H6            1 RES     
   19625 H6        -682.7654  -544.2674   674.1974 H6            1 RES     
   19626 H6        -684.2643  -550.0560   671.0782 H6            1 RES     
   19627 H6        -683.8426  -549.1914   672.5833 H6            1 RES     
   19628 H6        -683.3249  -547.1332   670.9896 H6            1 RES     
   19629 H6        -683.6038  -548.2308   669.6303 H6            1 RES     
   19630 H6        -681.2469  -547.8614   670.1752 H6            1 RES     
   19631 H6        -681.4630  -548.4694   671.8521 H6            1 RES     
   19632 H6        -681.8246  -550.1653   669.2787 H6            1 RES     
   19633 H6        -681.9994  -550.7377   670.9786 H6            1 RES     
   19634 H6        -679.5898  -550.1860   671.4292 H6            1 RES     
   19635 H6        -679.8411  -551.4195   670.1433 H6            1 RES     
   19636 H6        -679.2095  -548.4409   669.6323 H6            1 RES     
   19637 H6        -679.4630  -549.6929   668.3644 H6            1 RES     
   19638 H6        -677.0733  -549.1357   668.7729 H6            1 RES     
   19639 H6        -677.2154  -549.6269   670.4973 H6            1 RES     
   19640 H6        -677.6702  -551.9952   669.7631 H6            1 RES     
   19641 H6        -676.1287  -551.3735   669.0878 H6            1 RES     
   19642 H6        -677.5868  -551.4625   668.0316 H6            1 RES     
   19643 C0        -698.9503  -554.0342   665.6116 C0            1 RES     
   19644 C0        -700.3900  -553.5473   665.1722 C0            1 RES     
   19645 C0        -700.3925  -552.2192   664.9083 C0            1 RES     
   19646 S1        -701.8758  -551.6246   664.3954 S1            1 RES     
   19647 C0        -702.6303  -553.1445   664.4852 C0            1 RES     
   19648 C0        -701.7034  -554.0615   665.0015 C0            1 RES     
   19649 C0        -699.1255  -551.6705   665.2210 C0            1 RES     
   19650 C0        -698.3297  -552.6328   665.6288 C0            1 RES     
   19651 C0        -697.1045  -552.0980   666.1534 C0            1 RES     
   19652 C0        -697.0903  -550.7158   666.1063 C0            1 RES     
   19653 S1        -698.5494  -549.9869   665.3418 S1            1 RES     
   19654 H2        -701.9911  -555.0632   665.1908 H2            1 RES     
   19655 H2        -696.3775  -552.6759   666.6410 H2            1 RES     
   19656 N3        -705.6352  -555.1835   663.3650 N3            1 RES     
   19657 C0        -704.4209  -554.8411   663.8797 C0            1 RES     
   19658 C0        -704.0143  -553.4855   663.9995 C0            1 RES     
   19659 C0        -704.9444  -552.5150   663.5684 C0            1 RES     
   19660 N3        -704.7369  -551.1732   663.6112 N3            1 RES     
   19661 S1        -706.1433  -550.5720   662.9895 S1            1 RES     
   19662 N3        -707.0338  -551.9159   662.6452 N3            1 RES     
   19663 C0        -706.2048  -552.9189   663.0382 C0            1 RES     
   19664 C0        -706.5320  -554.2600   662.9400 C0            1 RES     
   19665 H4        -703.7705  -555.6433   664.1606 H4            1 RES     
   19666 C5        -705.5087  -552.9840   656.9078 C5            1 RES     
   19667 C5        -705.2442  -552.3720   658.2834 C5            1 RES     
   19668 C5        -704.6879  -553.3849   659.2985 C5            1 RES     
   19669 C5        -703.2849  -553.9058   658.9365 C5            1 RES     
   19670 C5        -702.7684  -554.8786   660.0076 C5            1 RES     
   19671 C5        -701.3056  -555.2922   659.7338 C5            1 RES     
   19672 C5        -700.6815  -556.2329   660.7988 C5            1 RES     
   19673 C5        -700.8815  -555.6669   662.2058 C5            1 RES     
   19674 C5        -699.9948  -556.2280   663.3458 C5            1 RES     
   19675 C5        -700.2342  -557.7008   663.8576 C5            1 RES     
   19676 C5        -701.5651  -557.6782   664.6595 C5            1 RES     
   19677 C5        -702.2300  -558.8317   665.4199 C5            1 RES     
   19678 C5        -703.5133  -558.1989   666.0523 C5            1 RES     
   19679 C5        -704.4188  -559.0977   666.8925 C5            1 RES     
   19680 C5        -703.7991  -559.4903   668.2280 C5            1 RES     
   19681 C5        -698.5850  -555.6194   663.3413 C5            1 RES     
   19682 C0        -698.0997  -555.1811   664.7837 C0            1 RES     
   19683 C5        -696.5103  -555.1716   664.8069 C5            1 RES     
   19684 C5        -695.7852  -556.0124   665.9150 C5            1 RES     
   19685 C5        -695.5803  -555.2591   667.2611 C5            1 RES     
   19686 C5        -694.4340  -554.2200   667.2664 C5            1 RES     
   19687 C5        -694.4430  -553.3036   668.5057 C5            1 RES     
   19688 C5        -694.0597  -553.9828   669.8299 C5            1 RES     
   19689 C5        -692.6179  -554.5242   669.8818 C5            1 RES     
   19690 C5        -691.5580  -553.4413   669.6561 C5            1 RES     
   19691 C5        -694.4665  -556.7140   665.4061 C5            1 RES     
   19692 C5        -693.4817  -555.8523   664.5685 C5            1 RES     
   19693 C5        -692.1134  -556.5188   664.3012 C5            1 RES     
   19694 C5        -692.1689  -557.8278   663.4887 C5            1 RES     
   19695 C5        -690.7673  -558.4192   663.1990 C5            1 RES     
   19696 C5        -689.9121  -557.5481   662.2525 C5            1 RES     
   19697 C5        -688.5109  -558.1221   661.9678 C5            1 RES     
   19698 C5        -688.5274  -559.4529   661.2158 C5            1 RES     
   19699 H6        -704.5694  -553.3376   656.4372 H6            1 RES     
   19700 H6        -705.9565  -552.2164   656.2421 H6            1 RES     
   19701 H6        -706.2197  -553.8327   656.9977 H6            1 RES     
   19702 H6        -704.5475  -551.5112   658.1824 H6            1 RES     
   19703 H6        -706.2112  -551.9867   658.6746 H6            1 RES     
   19704 H6        -704.6242  -552.8681   660.2824 H6            1 RES     
   19705 H6        -705.3981  -554.2337   659.4006 H6            1 RES     
   19706 H6        -702.5975  -553.0329   658.8698 H6            1 RES     
   19707 H6        -703.2959  -554.4292   657.9586 H6            1 RES     
   19708 H6        -702.8230  -554.3459   660.9809 H6            1 RES     
   19709 H6        -703.4198  -555.7775   660.0510 H6            1 RES     
   19710 H6        -701.2245  -555.7756   658.7366 H6            1 RES     
   19711 H6        -700.6981  -554.3596   659.7096 H6            1 RES     
   19712 H6        -701.1268  -557.2499   660.7528 H6            1 RES     
   19713 H6        -699.5976  -556.3104   660.5657 H6            1 RES     
   19714 H6        -701.9506  -555.7743   662.4677 H6            1 RES     
   19715 H6        -700.6861  -554.5710   662.1659 H6            1 RES     
   19716 H6        -700.3357  -555.6907   664.1545 H6            1 RES     
   19717 H6        -700.2403  -558.4207   663.0124 H6            1 RES     
   19718 H6        -699.4298  -557.9887   664.5700 H6            1 RES     
   19719 H6        -701.3565  -556.9758   665.4882 H6            1 RES     
   19720 H6        -702.3302  -557.3059   663.9576 H6            1 RES     
   19721 H6        -701.5479  -559.2188   666.2075 H6            1 RES     
   19722 H6        -702.5071  -559.6523   664.7263 H6            1 RES     
   19723 H6        -703.2381  -557.3208   666.6833 H6            1 RES     
   19724 H6        -704.1457  -557.8187   665.2201 H6            1 RES     
   19725 H6        -704.7194  -559.9919   666.3098 H6            1 RES     
   19726 H6        -705.3367  -558.5097   667.1253 H6            1 RES     
   19727 H6        -703.5406  -558.5796   668.8128 H6            1 RES     
   19728 H6        -702.8911  -560.1054   668.0767 H6            1 RES     
   19729 H6        -704.5429  -560.0733   668.8122 H6            1 RES     
   19730 H6        -698.5368  -554.6874   662.7375 H6            1 RES     
   19731 H6        -697.9357  -556.3665   662.8359 H6            1 RES     
   19732 H6        -696.2154  -555.7155   663.8895 H6            1 RES     
   19733 H6        -696.0680  -554.1699   664.6377 H6            1 RES     
   19734 H6        -696.4702  -556.8576   666.1526 H6            1 RES     
   19735 H6        -696.5493  -554.7865   667.5256 H6            1 RES     
   19736 H6        -695.3497  -556.0007   668.0562 H6            1 RES     
   19737 H6        -693.4494  -554.7193   667.1909 H6            1 RES     
   19738 H6        -694.5273  -553.5710   666.3756 H6            1 RES     
   19739 H6        -693.7485  -552.4582   668.3245 H6            1 RES     
   19740 H6        -695.4507  -552.8559   668.6270 H6            1 RES     
   19741 H6        -694.7701  -554.8084   670.0448 H6            1 RES     
   19742 H6        -694.1709  -553.2278   670.6387 H6            1 RES     
   19743 H6        -692.4766  -555.3373   669.1404 H6            1 RES     
   19744 H6        -692.4569  -554.9578   670.8919 H6            1 RES     
   19745 H6        -691.6810  -552.6176   670.3915 H6            1 RES     
   19746 H6        -690.5463  -553.8801   669.7791 H6            1 RES     
   19747 H6        -691.6181  -553.0277   668.6282 H6            1 RES     
   19748 H6        -694.7633  -557.5551   664.7430 H6            1 RES     
   19749 H6        -693.9490  -557.1604   666.2830 H6            1 RES     
   19750 H6        -693.2447  -554.9059   665.0725 H6            1 RES     
   19751 H6        -693.9494  -555.5829   663.5976 H6            1 RES     
   19752 H6        -691.5139  -555.7721   663.7436 H6            1 RES     
   19753 H6        -691.6048  -556.7136   665.2713 H6            1 RES     
   19754 H6        -692.6966  -557.6593   662.5249 H6            1 RES     
   19755 H6        -692.7366  -558.5794   664.0739 H6            1 RES     
   19756 H6        -690.2253  -558.5812   664.1565 H6            1 RES     
   19757 H6        -690.9215  -559.4103   662.7191 H6            1 RES     
   19758 H6        -689.7505  -556.5536   662.7135 H6            1 RES     
   19759 H6        -690.4501  -557.4043   661.2901 H6            1 RES     
   19760 H6        -687.9630  -557.3874   661.3371 H6            1 RES     
   19761 H6        -687.9506  -558.2415   662.9200 H6            1 RES     
   19762 H6        -689.0042  -560.2502   661.8203 H6            1 RES     
   19763 H6        -687.4826  -559.7658   661.0027 H6            1 RES     
   19764 H6        -689.0657  -559.3446   660.2504 H6            1 RES     
   19765 C0        -710.6027  -557.4859   661.5030 C0            1 RES     
   19766 C0        -711.9539  -556.6642   661.4564 C0            1 RES     
   19767 C0        -711.7114  -555.3321   661.4739 C0            1 RES     
   19768 S1        -713.0925  -554.3825   661.3871 S1            1 RES     
   19769 C0        -714.1326  -555.7239   661.3088 C0            1 RES     
   19770 C0        -713.3573  -556.8850   661.4399 C0            1 RES     
   19771 C0        -710.3245  -555.1040   661.6426 C0            1 RES     
   19772 C0        -709.7014  -556.2597   661.6856 C0            1 RES     
   19773 C0        -708.3265  -556.0879   662.0630 C0            1 RES     
   19774 C0        -708.0244  -554.7586   662.2964 C0            1 RES     
   19775 S1        -709.3905  -553.6250   661.9907 S1            1 RES     
   19776 H2        -713.8212  -557.8366   661.4730 H2            1 RES     
   19777 H2        -707.6759  -556.8832   662.2740 H2            1 RES     
   19778 N3        -717.6356  -556.8798   660.3948 N3            1 RES     
   19779 C0        -716.3138  -556.8875   660.7257 C0            1 RES     
   19780 C0        -715.6137  -555.6919   661.0386 C0            1 RES     
   19781 C0        -716.3681  -554.4994   661.0007 C0            1 RES     
   19782 N3        -715.8747  -553.2639   661.2751 N3            1 RES     
   19783 S1        -717.1962  -552.2955   661.0705 S1            1 RES     
   19784 N3        -718.3942  -553.3418   660.6373 N3            1 RES     
   19785 C0        -717.7499  -554.5387   660.6513 C0            1 RES     
   19786 C0        -718.3670  -555.7394   660.3469 C0            1 RES     
   19787 H4        -715.8156  -557.8346   660.7073 H4            1 RES     
   19788 C5        -717.9971  -553.2665   654.6188 C5            1 RES     
   19789 C5        -717.4077  -553.0548   656.0133 C5            1 RES     
   19790 C5        -716.9371  -554.3611   656.6750 C5            1 RES     
   19791 C5        -715.7470  -555.0186   655.9522 C5            1 RES     
   19792 C5        -715.2979  -556.2929   656.6835 C5            1 RES     
   19793 C5        -714.0142  -556.8791   656.0557 C5            1 RES     
   19794 C5        -713.4552  -558.1402   656.7669 C5            1 RES     
   19795 C5        -713.3196  -557.8987   658.2713 C5            1 RES     
   19796 C5        -712.4148  -558.8609   659.0815 C5            1 RES     
   19797 C5        -712.8852  -560.3477   659.3190 C5            1 RES     
   19798 C5        -714.0471  -560.2836   660.3489 C5            1 RES     
   19799 C5        -714.8234  -561.4499   660.9718 C5            1 RES     
   19800 C5        -715.8340  -560.7708   661.9539 C5            1 RES     
   19801 C5        -716.7763  -561.6706   662.7515 C5            1 RES     
   19802 C5        -716.0646  -562.4715   663.8348 C5            1 RES     
   19803 C5        -710.9240  -558.5251   658.9305 C5            1 RES     
   19804 C0        -710.1487  -558.5340   660.3114 C0            1 RES     
   19805 C5        -708.6084  -558.8088   660.0306 C5            1 RES     
   19806 C5        -707.9243  -560.0024   660.7843 C5            1 RES     
   19807 C5        -707.3666  -559.6382   662.1906 C5            1 RES     
   19808 C5        -706.0368  -558.8474   662.1873 C5            1 RES     
   19809 C5        -705.6666  -558.2646   663.5653 C5            1 RES     
   19810 C5        -705.2460  -559.2952   664.6248 C5            1 RES     
   19811 C5        -703.9617  -560.0773   664.2879 C5            1 RES     
   19812 C5        -702.7402  -559.1746   664.0881 C5            1 RES     
   19813 C5        -706.8759  -560.7827   659.8998 C5            1 RES     
   19814 C5        -705.8645  -559.9328   659.0821 C5            1 RES     
   19815 C5        -704.7251  -560.7458   658.4272 C5            1 RES     
   19816 C5        -705.1783  -561.7938   657.3914 C5            1 RES     
   19817 C5        -703.9941  -562.5354   656.7240 C5            1 RES     
   19818 C5        -703.1219  -561.6280   655.8284 C5            1 RES     
   19819 C5        -701.9335  -562.3542   655.1694 C5            1 RES     
   19820 C5        -702.3449  -563.4442   654.1797 C5            1 RES     
   19821 H6        -717.2351  -553.6570   653.9148 H6            1 RES     
   19822 H6        -718.3638  -552.2965   654.2218 H6            1 RES     
   19823 H6        -718.8518  -553.9742   654.6689 H6            1 RES     
   19824 H6        -716.5659  -552.3303   655.9578 H6            1 RES     
   19825 H6        -718.2014  -552.6103   656.6528 H6            1 RES     
   19826 H6        -716.6198  -554.1123   657.7126 H6            1 RES     
   19827 H6        -717.7891  -555.0720   656.7365 H6            1 RES     
   19828 H6        -714.9065  -554.2890   655.9339 H6            1 RES     
   19829 H6        -716.0139  -555.2844   654.9090 H6            1 RES     
   19830 H6        -715.0931  -556.0056   657.7368 H6            1 RES     
   19831 H6        -716.1127  -557.0480   656.6671 H6            1 RES     
   19832 H6        -714.1865  -557.1183   654.9844 H6            1 RES     
   19833 H6        -713.2317  -556.0887   656.1057 H6            1 RES     
   19834 H6        -714.1093  -559.0230   656.6012 H6            1 RES     
   19835 H6        -712.4595  -558.3487   656.3194 H6            1 RES     
   19836 H6        -714.3363  -557.8763   658.7061 H6            1 RES     
   19837 H6        -712.9026  -556.8764   658.4186 H6            1 RES     
   19838 H6        -712.5097  -558.4799   660.0327 H6            1 RES     
   19839 H6        -713.1698  -560.8337   658.3622 H6            1 RES     
   19840 H6        -712.0647  -560.9329   659.7900 H6            1 RES     
   19841 H6        -713.5732  -559.8458   661.2475 H6            1 RES     
   19842 H6        -714.8101  -559.6271   659.8976 H6            1 RES     
   19843 H6        -714.1311  -562.1263   661.5183 H6            1 RES     
   19844 H6        -715.3688  -562.0207   660.1920 H6            1 RES     
   19845 H6        -715.2873  -560.1299   662.6857 H6            1 RES     
   19846 H6        -716.4863  -560.0991   661.3537 H6            1 RES     
   19847 H6        -717.3438  -562.3339   662.0677 H6            1 RES     
   19848 H6        -717.5027  -561.0034   663.2708 H6            1 RES     
   19849 H6        -715.5339  -561.7856   664.5321 H6            1 RES     
   19850 H6        -715.3415  -563.1822   663.3901 H6            1 RES     
   19851 H6        -716.8211  -563.0371   664.4197 H6            1 RES     
   19852 H6        -710.7676  -557.4997   658.5313 H6            1 RES     
   19853 H6        -710.5313  -559.2326   658.1687 H6            1 RES     
   19854 H6        -708.5754  -559.1622   658.9826 H6            1 RES     
   19855 H6        -707.9922  -557.8889   659.9872 H6            1 RES     
   19856 H6        -708.7312  -560.7464   660.9718 H6            1 RES     
   19857 H6        -708.1622  -559.0798   662.7267 H6            1 RES     
   19858 H6        -707.1849  -560.5760   662.7588 H6            1 RES     
   19859 H6        -705.2038  -559.4789   661.8242 H6            1 RES     
   19860 H6        -706.1197  -557.9993   661.4820 H6            1 RES     
   19861 H6        -704.8420  -557.5354   663.4301 H6            1 RES     
   19862 H6        -706.5261  -557.6892   663.9663 H6            1 RES     
   19863 H6        -706.0767  -560.0107   664.7994 H6            1 RES     
   19864 H6        -705.0726  -558.7465   665.5764 H6            1 RES     
   19865 H6        -704.1085  -560.7028   663.3834 H6            1 RES     
   19866 H6        -703.7497  -560.7598   665.1385 H6            1 RES     
   19867 H6        -702.5742  -558.5408   664.9855 H6            1 RES     
   19868 H6        -701.8387  -559.8003   663.9228 H6            1 RES     
   19869 H6        -702.8616  -558.5248   663.1970 H6            1 RES     
   19870 H6        -707.4402  -561.3768   659.1489 H6            1 RES     
   19871 H6        -706.3421  -561.5082   660.5516 H6            1 RES     
   19872 H6        -705.3589  -559.1899   659.7131 H6            1 RES     
   19873 H6        -706.4019  -559.3629   658.2945 H6            1 RES     
   19874 H6        -704.0689  -560.0048   657.9289 H6            1 RES     
   19875 H6        -704.1323  -561.2514   659.2214 H6            1 RES     
   19876 H6        -705.7943  -561.3114   656.6017 H6            1 RES     
   19877 H6        -705.8008  -562.5515   657.9092 H6            1 RES     
   19878 H6        -703.3639  -563.0125   657.5062 H6            1 RES     
   19879 H6        -704.4257  -563.3414   656.0910 H6            1 RES     
   19880 H6        -702.6852  -560.8157   656.4424 H6            1 RES     
   19881 H6        -703.7528  -561.1677   655.0370 H6            1 RES     
   19882 H6        -701.3406  -561.5983   654.6083 H6            1 RES     
   19883 H6        -701.2773  -562.7925   655.9518 H6            1 RES     
   19884 H6        -702.8865  -564.2661   654.6893 H6            1 RES     
   19885 H6        -701.4343  -563.8754   653.7110 H6            1 RES     
   19886 H6        -702.9841  -563.0171   653.3782 H6            1 RES     
   19887 C0        -723.1996  -557.7674   659.0918 C0            1 RES     
   19888 C0        -724.3357  -556.7347   659.4736 C0            1 RES     
   19889 C0        -723.8143  -555.5086   659.7149 C0            1 RES     
   19890 S1        -724.9578  -554.3387   660.0899 S1            1 RES     
   19891 C0        -726.2604  -555.4197   659.9412 C0            1 RES     
   19892 C0        -725.7405  -556.6960   659.6821 C0            1 RES     
   19893 C0        -722.4012  -555.5736   659.6572 C0            1 RES     
   19894 C0        -722.0402  -556.7971   659.3437 C0            1 RES     
   19895 C0        -720.6200  -556.9633   659.4772 C0            1 RES     
   19896 C0        -720.0097  -555.8016   659.9138 C0            1 RES     
   19897 S1        -721.1318  -554.4066   660.1132 S1            1 RES     
   19898 H2        -726.3869  -557.5319   659.6092 H2            1 RES     
   19899 H2        -720.1306  -557.8872   659.3931 H2            1 RES     
   19900 N3        -730.0252  -555.6936   659.5007 N3            1 RES     
   19901 C0        -728.7015  -556.0110   659.5631 C0            1 RES     
   19902 C0        -727.7238  -555.0656   659.9726 C0            1 RES     
   19903 C0        -728.2030  -553.7851   660.3237 C0            1 RES     
   19904 N3        -727.4220  -552.7562   660.7439 N3            1 RES     
   19905 S1        -728.5214  -551.5509   660.9981 S1            1 RES     
   19906 N3        -729.9658  -552.2379   660.5991 N3            1 RES     
   19907 C0        -729.5974  -553.4976   660.2454 C0            1 RES     
   19908 C0        -730.4948  -554.4646   659.8271 C0            1 RES     
   19909 H4        -728.4255  -556.9988   659.2572 H4            1 RES     
   19910 C5        -730.4552  -550.8058   654.7601 C5            1 RES     
   19911 C5        -729.6348  -551.0380   656.0289 C5            1 RES     
   19912 C5        -729.3618  -552.5258   656.3080 C5            1 RES     
   19913 C5        -728.4599  -553.1906   655.2519 C5            1 RES     
   19914 C5        -728.1905  -554.6605   655.6084 C5            1 RES     
   19915 C5        -727.1688  -555.2963   654.6401 C5            1 RES     
   19916 C5        -726.7935  -556.7681   654.9590 C5            1 RES     
   19917 C5        -726.3887  -556.9184   656.4264 C5            1 RES     
   19918 C5        -725.6009  -558.1887   656.8348 C5            1 RES     
   19919 C5        -726.3378  -559.5834   656.8505 C5            1 RES     
   19920 C5        -727.2940  -559.5633   658.0752 C5            1 RES     
   19921 C5        -728.2009  -560.6897   658.5849 C5            1 RES     
   19922 C5        -728.8866  -560.0971   659.8600 C5            1 RES     
   19923 C5        -729.8711  -560.9813   660.6233 C5            1 RES     
   19924 C5        -729.1949  -562.1285   661.3638 C5            1 RES     
   19925 C5        -724.1119  -558.0931   656.4721 C5            1 RES     
   19926 C0        -723.1611  -558.5653   657.6473 C0            1 RES     
   19927 C5        -721.7739  -559.0309   657.0262 C5            1 RES     
   19928 C5        -721.2570  -560.4701   657.3756 C5            1 RES     
   19929 C5        -720.4329  -560.5539   658.6929 C5            1 RES     
   19930 C5        -718.9802  -560.0304   658.5955 C5            1 RES     
   19931 C5        -718.2947  -559.8657   659.9661 C5            1 RES     
   19932 C5        -717.9523  -561.1758   660.6929 C5            1 RES     
   19933 C5        -716.9290  -562.0679   659.9637 C5            1 RES     
   19934 C5        -715.5860  -561.3718   659.7213 C5            1 RES     
   19935 C5        -720.5420  -561.1892   656.1665 C5            1 RES     
   19936 C5        -719.5045  -560.3600   655.3602 C5            1 RES     
   19937 C5        -718.6746  -561.1807   654.3475 C5            1 RES     
   19938 C5        -719.4893  -561.8566   653.2266 C5            1 RES     
   19939 C5        -718.6027  -562.6140   652.2077 C5            1 RES     
   19940 C5        -717.6989  -561.6871   651.3652 C5            1 RES     
   19941 C5        -716.8038  -562.4324   650.3566 C5            1 RES     
   19942 C5        -717.5802  -563.1667   649.2636 C5            1 RES     
   19943 H6        -729.9068  -551.1451   653.8584 H6            1 RES     
   19944 H6        -730.6607  -549.7205   654.6467 H6            1 RES     
   19945 H6        -731.4244  -551.3443   654.8281 H6            1 RES     
   19946 H6        -728.6753  -550.4800   655.9615 H6            1 RES     
   19947 H6        -730.2118  -550.6263   656.8856 H6            1 RES     
   19948 H6        -728.8490  -552.5900   657.2939 H6            1 RES     
   19949 H6        -730.3275  -553.0704   656.3858 H6            1 RES     
   19950 H6        -727.4950  -552.6364   655.2215 H6            1 RES     
   19951 H6        -728.9285  -553.1501   654.2474 H6            1 RES     
   19952 H6        -727.7757  -554.6721   656.6388 H6            1 RES     
   19953 H6        -729.1410  -555.2355   655.5954 H6            1 RES     
   19954 H6        -727.5445  -555.2402   653.5959 H6            1 RES     
   19955 H6        -726.2369  -554.6900   654.6987 H6            1 RES     
   19956 H6        -727.6383  -557.4577   654.7457 H6            1 RES     
   19957 H6        -725.9426  -557.0353   654.2958 H6            1 RES     
   19958 H6        -727.3015  -556.8223   657.0435 H6            1 RES     
   19959 H6        -725.7458  -556.0496   656.6958 H6            1 RES     
   19960 H6        -725.4707  -558.0340   657.8438 H6            1 RES     
   19961 H6        -726.8578  -559.7706   655.8876 H6            1 RES     
   19962 H6        -725.6010  -560.3980   657.0261 H6            1 RES     
   19963 H6        -726.6101  -559.4414   658.9362 H6            1 RES     
   19964 H6        -727.9572  -558.6952   657.9220 H6            1 RES     
   19965 H6        -727.5962  -561.5870   658.8390 H6            1 RES     
   19966 H6        -728.9647  -560.9543   657.8246 H6            1 RES     
   19967 H6        -728.1137  -559.7543   660.5880 H6            1 RES     
   19968 H6        -729.4617  -559.1985   659.5456 H6            1 RES     
   19969 H6        -730.6619  -561.3532   659.9408 H6            1 RES     
   19970 H6        -730.3532  -560.3400   661.3971 H6            1 RES     
   19971 H6        -728.4329  -561.7317   662.0710 H6            1 RES     
   19972 H6        -728.7143  -562.8286   660.6535 H6            1 RES     
   19973 H6        -729.9600  -562.6754   661.9554 H6            1 RES     
   19974 H6        -723.8006  -557.0458   656.2675 H6            1 RES     
   19975 H6        -723.9964  -558.6568   655.5213 H6            1 RES     
   19976 H6        -721.9723  -559.1253   655.9418 H6            1 RES     
   19977 H6        -720.9887  -558.2496   657.0536 H6            1 RES     
   19978 H6        -722.1675  -561.0842   657.5591 H6            1 RES     
   19979 H6        -721.0027  -560.0084   659.4739 H6            1 RES     
   19980 H6        -720.3740  -561.6168   659.0127 H6            1 RES     
   19981 H6        -718.3645  -560.6934   657.9585 H6            1 RES     
   19982 H6        -718.9833  -559.0380   658.1069 H6            1 RES     
   19983 H6        -717.3626  -559.2813   659.8265 H6            1 RES     
   19984 H6        -718.9425  -559.2607   660.6331 H6            1 RES     
   19985 H6        -718.8816  -561.7554   660.8742 H6            1 RES     
   19986 H6        -717.5270  -560.9079   661.6848 H6            1 RES     
   19987 H6        -717.3380  -562.4249   658.9963 H6            1 RES     
   19988 H6        -716.7445  -562.9592   660.6008 H6            1 RES     
   19989 H6        -715.1578  -561.0085   660.6799 H6            1 RES     
   19990 H6        -714.8736  -562.0882   659.2622 H6            1 RES     
   19991 H6        -715.6961  -560.5180   659.0213 H6            1 RES     
   19992 H6        -721.3248  -561.4797   655.4329 H6            1 RES     
   19993 H6        -720.0853  -562.1306   656.5421 H6            1 RES     
   19994 H6        -718.7643  -559.8886   656.0203 H6            1 RES     
   19995 H6        -720.0180  -559.5342   654.8232 H6            1 RES     
   19996 H6        -717.9563  -560.4693   653.8939 H6            1 RES     
   19997 H6        -718.0929  -561.9562   654.8933 H6            1 RES     
   19998 H6        -720.0976  -561.1002   652.6848 H6            1 RES     
   19999 H6        -720.1758  -562.5945   653.6890 H6            1 RES     
   20000 H6        -717.9806  -563.3661   652.7407 H6            1 RES     
   20001 H6        -719.2852  -563.1582   651.5188 H6            1 RES     
   20002 H6        -717.0129  -561.1332   652.0362 H6            1 RES     
   20003 H6        -718.3267  -560.9488   650.8201 H6            1 RES     
   20004 H6        -716.1526  -561.6807   649.8580 H6            1 RES     
   20005 H6        -716.1482  -563.1520   650.8926 H6            1 RES     
   20006 H6        -718.2035  -563.9783   649.6894 H6            1 RES     
   20007 H6        -716.8622  -563.6269   648.5510 H6            1 RES     
   20008 H6        -718.2246  -562.4563   648.7036 H6            1 RES     
   20009 C0        -735.7803  -555.2579   659.1367 C0            1 RES     
   20010 C0        -736.6003  -554.1629   659.9314 C0            1 RES     
   20011 C0        -735.7991  -553.1400   660.3126 C0            1 RES     
   20012 S1        -736.5980  -551.9111   661.1302 S1            1 RES     
   20013 C0        -738.1089  -552.6805   661.0174 C0            1 RES     
   20014 C0        -737.9178  -553.9294   660.4091 C0            1 RES     
   20015 C0        -734.4570  -553.4358   659.9729 C0            1 RES     
   20016 C0        -734.4161  -554.5936   659.3536 C0            1 RES     
   20017 C0        -733.0605  -555.0328   659.1754 C0            1 RES     
   20018 C0        -732.1584  -554.1334   659.7139 C0            1 RES     
   20019 S1        -732.9144  -552.6514   660.4046 S1            1 RES     
   20020 H2        -738.7314  -554.5976   660.2930 H2            1 RES     
   20021 H2        -732.7977  -555.9813   658.8126 H2            1 RES     
   20022 N3        -741.8679  -552.1783   661.2611 N3            1 RES     
   20023 C0        -740.6483  -552.7282   661.0025 C0            1 RES     
   20024 C0        -739.4417  -552.0934   661.4004 C0            1 RES     
   20025 C0        -739.5790  -550.8694   662.0900 C0            1 RES     
   20026 N3        -738.5428  -550.1229   662.5530 N3            1 RES     
   20027 S1        -739.3093  -548.8392   663.2534 S1            1 RES     
   20028 N3        -740.9099  -549.1479   663.0077 N3            1 RES     
   20029 C0        -740.8756  -550.3320   662.3409 C0            1 RES     
   20030 C0        -742.0106  -550.9993   661.9148 C0            1 RES     
   20031 H4        -740.6381  -553.6477   660.4547 H4            1 RES     
   20032 C5        -741.9389  -546.3068   657.7871 C5            1 RES     
   20033 C5        -741.0089  -546.9737   658.8005 C5            1 RES     
   20034 C5        -741.0219  -548.5093   658.7133 C5            1 RES     
   20035 C5        -740.4490  -549.0516   657.3910 C5            1 RES     
   20036 C5        -740.4504  -550.5879   657.3824 C5            1 RES     
   20037 C5        -739.7427  -551.1443   656.1273 C5            1 RES     
   20038 C5        -739.6477  -552.6919   656.0619 C5            1 RES     
   20039 C5        -739.0722  -553.2551   657.3625 C5            1 RES     
   20040 C5        -738.5226  -554.7037   657.3449 C5            1 RES     
   20041 C5        -739.5299  -555.9110   657.2175 C5            1 RES     
   20042 C5        -740.2681  -556.0153   658.5809 C5            1 RES     
   20043 C5        -741.3092  -557.0538   659.0149 C5            1 RES     
   20044 C5        -741.6564  -556.6704   660.4913 C5            1 RES     
   20045 C5        -742.6833  -557.5242   661.2331 C5            1 RES     
   20046 C5        -742.1662  -558.9146   661.5808 C5            1 RES     
   20047 C5        -737.1178  -554.7869   656.7304 C5            1 RES     
   20048 C0        -736.1270  -555.6838   657.5801 C0            1 RES     
   20049 C5        -734.9786  -556.2240   656.6229 C5            1 RES     
   20050 C5        -734.7354  -557.7727   656.5662 C5            1 RES     
   20051 C5        -733.7630  -558.3099   657.6557 C5            1 RES     
   20052 C5        -732.2627  -558.0410   657.3900 C5            1 RES     
   20053 C5        -731.3630  -558.3293   658.6079 C5            1 RES     
   20054 C5        -731.2051  -559.8136   658.9733 C5            1 RES     
   20055 C5        -730.5152  -560.6720   657.8953 C5            1 RES     
   20056 C5        -729.1054  -560.1845   657.5465 C5            1 RES     
   20057 C5        -734.3772  -558.2977   655.1217 C5            1 RES     
   20058 C5        -733.3172  -557.4956   654.3174 C5            1 RES     
   20059 C5        -732.8408  -558.1845   653.0188 C5            1 RES     
   20060 C5        -733.9375  -558.4213   651.9614 C5            1 RES     
   20061 C5        -733.3937  -559.0582   650.6589 C5            1 RES     
   20062 C5        -732.4472  -558.1307   649.8652 C5            1 RES     
   20063 C5        -731.8912  -558.7600   648.5735 C5            1 RES     
   20064 C5        -732.9593  -559.0660   647.5236 C5            1 RES     
   20065 H6        -741.6150  -546.5128   656.7471 H6            1 RES     
   20066 H6        -741.9221  -545.2069   657.9386 H6            1 RES     
   20067 H6        -742.9798  -546.6677   657.9287 H6            1 RES     
   20068 H6        -739.9730  -546.5926   658.6653 H6            1 RES     
   20069 H6        -741.3516  -546.6828   659.8176 H6            1 RES     
   20070 H6        -740.3949  -548.8947   659.5484 H6            1 RES     
   20071 H6        -742.0594  -548.8791   658.8625 H6            1 RES     
   20072 H6        -739.4033  -548.6838   657.2895 H6            1 RES     
   20073 H6        -741.0413  -548.6922   656.5247 H6            1 RES     
   20074 H6        -739.9001  -550.9164   658.2897 H6            1 RES     
   20075 H6        -741.4931  -550.9677   657.4353 H6            1 RES     
   20076 H6        -740.2477  -550.7768   655.2083 H6            1 RES     
   20077 H6        -738.7046  -550.7421   656.1282 H6            1 RES     
   20078 H6        -740.6423  -553.1522   655.8789 H6            1 RES     
   20079 H6        -738.9811  -552.9387   655.2075 H6            1 RES     
   20080 H6        -739.8419  -553.1500   658.1496 H6            1 RES     
   20081 H6        -738.2259  -552.6016   657.6746 H6            1 RES     
   20082 H6        -738.2147  -554.8184   658.3201 H6            1 RES     
   20083 H6        -740.2143  -555.7700   656.3547 H6            1 RES     
   20084 H6        -738.9665  -556.8601   657.0789 H6            1 RES     
   20085 H6        -739.4544  -556.2231   659.3010 H6            1 RES     
   20086 H6        -740.7456  -555.0334   658.7377 H6            1 RES     
   20087 H6        -740.8796  -558.0774   658.9603 H6            1 RES     
   20088 H6        -742.2157  -556.9922   658.3778 H6            1 RES     
   20089 H6        -740.7293  -556.6512   661.1118 H6            1 RES     
   20090 H6        -742.0662  -555.6365   660.4827 H6            1 RES     
   20091 H6        -743.6273  -557.5790   660.6539 H6            1 RES     
   20092 H6        -742.8976  -557.0108   662.1991 H6            1 RES     
   20093 H6        -741.2411  -558.8369   662.1944 H6            1 RES     
   20094 H6        -741.9565  -559.4989   660.6641 H6            1 RES     
   20095 H6        -742.9345  -559.4437   662.1843 H6            1 RES     
   20096 H6        -736.6236  -553.7922   656.6874 H6            1 RES     
   20097 H6        -737.2671  -555.1199   655.6806 H6            1 RES     
   20098 H6        -735.3506  -556.0219   655.6005 H6            1 RES     
   20099 H6        -734.0493  -555.6215   656.6574 H6            1 RES     
   20100 H6        -735.7188  -558.2436   656.7920 H6            1 RES     
   20101 H6        -734.0813  -557.8745   658.6259 H6            1 RES     
   20102 H6        -733.8859  -559.4118   657.7351 H6            1 RES     
   20103 H6        -731.9038  -558.6310   656.5253 H6            1 RES     
   20104 H6        -732.1257  -556.9762   657.1235 H6            1 RES     
   20105 H6        -730.3587  -557.9010   658.4139 H6            1 RES     
   20106 H6        -731.7608  -557.7962   659.4956 H6            1 RES     
   20107 H6        -732.1995  -560.2478   659.2077 H6            1 RES     
   20108 H6        -730.5906  -559.8677   659.8985 H6            1 RES     
   20109 H6        -731.1294  -560.7116   656.9723 H6            1 RES     
   20110 H6        -730.4334  -561.7071   658.2901 H6            1 RES     
   20111 H6        -728.4726  -560.1400   658.4587 H6            1 RES     
   20112 H6        -728.6383  -560.8846   656.8232 H6            1 RES     
   20113 H6        -729.1326  -559.1831   657.0694 H6            1 RES     
   20114 H6        -735.3036  -558.2639   654.5086 H6            1 RES     
   20115 H6        -734.0819  -559.3664   655.2032 H6            1 RES     
   20116 H6        -732.4042  -557.3316   654.9050 H6            1 RES     
   20117 H6        -733.7159  -556.4891   654.0684 H6            1 RES     
   20118 H6        -732.0621  -557.5227   652.5903 H6            1 RES     
   20119 H6        -732.3642  -559.1569   653.2733 H6            1 RES     
   20120 H6        -734.4434  -557.4634   651.7119 H6            1 RES     
   20121 H6        -734.6899  -559.1160   652.3869 H6            1 RES     
   20122 H6        -732.8750  -560.0123   650.8981 H6            1 RES     
   20123 H6        -734.2709  -559.2950   650.0177 H6            1 RES     
   20124 H6        -731.5673  -557.8810   650.4906 H6            1 RES     
   20125 H6        -732.9762  -557.1858   649.6126 H6            1 RES     
   20126 H6        -731.1753  -558.0373   648.1228 H6            1 RES     
   20127 H6        -731.3327  -559.6896   648.8159 H6            1 RES     
   20128 H6        -733.6717  -559.8334   647.8869 H6            1 RES     
   20129 H6        -732.4695  -559.4621   646.6081 H6            1 RES     
   20130 H6        -733.5124  -558.1413   647.2543 H6            1 RES     
   20131 C0        -747.3861  -550.6678   662.1046 C0            1 RES     
   20132 C0        -747.8266  -549.6668   663.2479 C0            1 RES     
   20133 C0        -746.7780  -548.9203   663.6683 C0            1 RES     
   20134 S1        -747.1661  -547.8004   664.8567 S1            1 RES     
   20135 C0        -748.8062  -548.2442   664.8817 C0            1 RES     
   20136 C0        -748.9784  -549.3264   664.0068 C0            1 RES     
   20137 C0        -745.5954  -549.3572   663.0244 C0            1 RES     
   20138 C0        -745.8948  -550.3235   662.1863 C0            1 RES     
   20139 C0        -744.7059  -550.9382   661.6657 C0            1 RES     
   20140 C0        -743.5630  -550.3647   662.1927 C0            1 RES     
   20141 S1        -743.8744  -548.9804   663.3025 S1            1 RES     
   20142 H2        -749.9241  -549.7948   663.9155 H2            1 RES     
   20143 H2        -744.7084  -551.8043   661.0740 H2            1 RES     
   20144 N3        -752.2929  -547.1640   665.9392 N3            1 RES     
   20145 C0        -751.2709  -547.8416   665.3449 C0            1 RES     
   20146 C0        -749.9112  -547.5409   665.6246 C0            1 RES     
   20147 C0        -749.6804  -546.5112   666.5622 C0            1 RES     
   20148 N3        -748.4519  -546.0893   666.9599 N3            1 RES     
   20149 S1        -748.8143  -544.8949   668.0406 S1            1 RES     
   20150 N3        -750.4622  -544.8512   668.0490 N3            1 RES     
   20151 C0        -750.7806  -545.8302   667.1613 C0            1 RES     
   20152 C0        -752.0822  -546.1679   666.8341 C0            1 RES     
   20153 H4        -751.5384  -548.5917   664.6299 H4            1 RES     
   20154 C5        -751.6198  -540.7163   663.8125 C5            1 RES     
   20155 C5        -750.7146  -541.7571   664.4713 C5            1 RES     
   20156 C5        -751.0682  -543.2014   664.0776 C5            1 RES     
   20157 C5        -750.8262  -543.5057   662.5877 C5            1 RES     
   20158 C5        -751.1571  -544.9713   662.2670 C5            1 RES     
   20159 C5        -750.7779  -545.3287   660.8130 C5            1 RES     
   20160 C5        -751.0266  -546.8085   660.4169 C5            1 RES     
   20161 C5        -750.3991  -547.7563   661.4406 C5            1 RES     
   20162 C5        -750.1805  -549.2324   661.0234 C5            1 RES     
   20163 C5        -751.4301  -550.1793   660.8486 C5            1 RES     
   20164 C5        -751.9638  -550.4736   662.2780 C5            1 RES     
   20165 C5        -753.1270  -551.3866   662.6832 C5            1 RES     
   20166 C5        -753.1623  -551.3102   664.2452 C5            1 RES     
   20167 C5        -754.2269  -552.1224   664.9807 C5            1 RES     
   20168 C5        -753.9732  -553.6240   664.9323 C5            1 RES     
   20169 C5        -748.9325  -549.4120   660.1469 C5            1 RES     
   20170 C0        -748.0418  -550.6443   660.5901 C0            1 RES     
   20171 C5        -747.1898  -551.1341   659.3407 C5            1 RES     
   20172 C5        -747.2942  -552.6429   658.9244 C5            1 RES     
   20173 C5        -746.3091  -553.5853   659.6745 C5            1 RES     
   20174 C5        -744.8420  -553.5279   659.1862 C5            1 RES     
   20175 C5        -743.8550  -554.2503   660.1242 C5            1 RES     
   20176 C5        -743.9657  -555.7829   660.1426 C5            1 RES     
   20177 C5        -743.6422  -556.4678   658.8006 C5            1 RES     
   20178 C5        -742.2281  -556.1660   658.2944 C5            1 RES     
   20179 C5        -747.2739  -552.8641   657.3621 C5            1 RES     
   20180 C5        -746.1976  -552.0923   656.5497 C5            1 RES     
   20181 C5        -746.0766  -552.5254   655.0713 C5            1 RES     
   20182 C5        -747.3424  -552.3085   654.2184 C5            1 RES     
   20183 C5        -747.1458  -552.7028   652.7338 C5            1 RES     
   20184 C5        -746.1508  -551.7938   651.9790 C5            1 RES     
   20185 C5        -745.9391  -552.1856   650.5041 C5            1 RES     
   20186 C5        -747.1910  -552.0416   649.6388 C5            1 RES     
   20187 H6        -751.5047  -540.7229   662.7100 H6            1 RES     
   20188 H6        -751.3462  -539.7044   664.1786 H6            1 RES     
   20189 H6        -752.6812  -540.9126   664.0748 H6            1 RES     
   20190 H6        -749.6528  -541.5423   664.2203 H6            1 RES     
   20191 H6        -750.8331  -541.6608   665.5728 H6            1 RES     
   20192 H6        -750.4217  -543.8778   664.6805 H6            1 RES     
   20193 H6        -752.1270  -543.4085   664.3446 H6            1 RES     
   20194 H6        -749.7528  -543.3132   662.3644 H6            1 RES     
   20195 H6        -751.4492  -542.8528   661.9428 H6            1 RES     
   20196 H6        -750.5619  -545.5971   662.9657 H6            1 RES     
   20197 H6        -752.2373  -545.1641   662.4405 H6            1 RES     
   20198 H6        -751.3229  -544.6708   660.1024 H6            1 RES     
   20199 H6        -749.6894  -545.1263   660.6965 H6            1 RES     
   20200 H6        -752.1125  -547.0306   660.3384 H6            1 RES     
   20201 H6        -750.5618  -546.9580   659.4185 H6            1 RES     
   20202 H6        -751.0037  -547.7081   662.3654 H6            1 RES     
   20203 H6        -749.3961  -547.3542   661.7108 H6            1 RES     
   20204 H6        -749.7637  -549.6276   661.8772 H6            1 RES     
   20205 H6        -752.1883  -549.7198   660.1803 H6            1 RES     
   20206 H6        -751.1093  -551.1519   660.4143 H6            1 RES     
   20207 H6        -751.1162  -550.9857   662.7710 H6            1 RES     
   20208 H6        -752.1919  -549.4890   662.7201 H6            1 RES     
   20209 H6        -752.9389  -552.4269   662.3399 H6            1 RES     
   20210 H6        -754.0833  -551.0177   662.2579 H6            1 RES     
   20211 H6        -752.1712  -551.6016   664.6670 H6            1 RES     
   20212 H6        -753.3383  -550.2486   664.5261 H6            1 RES     
   20213 H6        -755.2356  -551.8718   664.5946 H6            1 RES     
   20214 H6        -754.1814  -551.8238   666.0537 H6            1 RES     
   20215 H6        -752.9727  -553.8575   665.3597 H6            1 RES     
   20216 H6        -754.0311  -554.0013   663.8931 H6            1 RES     
   20217 H6        -754.7391  -554.1384   665.5515 H6            1 RES     
   20218 H6        -748.2491  -548.5379   660.2132 H6            1 RES     
   20219 H6        -749.3029  -549.4546   659.0999 H6            1 RES     
   20220 H6        -747.6568  -550.6330   658.4717 H6            1 RES     
   20221 H6        -746.1585  -550.7294   659.3182 H6            1 RES     
   20222 H6        -748.3112  -552.9743   659.2341 H6            1 RES     
   20223 H6        -746.3801  -553.3440   660.7556 H6            1 RES     
   20224 H6        -746.6515  -554.6354   659.5501 H6            1 RES     
   20225 H6        -744.7493  -553.9491   658.1672 H6            1 RES     
   20226 H6        -744.5216  -552.4712   659.1208 H6            1 RES     
   20227 H6        -742.8223  -553.9708   659.8324 H6            1 RES     
   20228 H6        -743.9941  -553.8822   661.1613 H6            1 RES     
   20229 H6        -744.9842  -556.0793   660.4702 H6            1 RES     
   20230 H6        -743.2472  -556.1620   660.9020 H6            1 RES     
   20231 H6        -744.3801  -556.1789   658.0242 H6            1 RES     
   20232 H6        -743.7261  -557.5650   658.9532 H6            1 RES     
   20233 H6        -741.4728  -556.4510   659.0578 H6            1 RES     
   20234 H6        -742.0335  -556.7449   657.3679 H6            1 RES     
   20235 H6        -742.1108  -555.0912   658.0453 H6            1 RES     
   20236 H6        -748.2518  -552.5239   656.9580 H6            1 RES     
   20237 H6        -747.2050  -553.9563   657.1660 H6            1 RES     
   20238 H6        -745.1941  -552.2351   656.9720 H6            1 RES     
   20239 H6        -746.4043  -551.0017   656.5920 H6            1 RES     
   20240 H6        -745.2465  -551.9277   654.6451 H6            1 RES     
   20241 H6        -745.7866  -553.5985   655.0263 H6            1 RES     
   20242 H6        -747.6631  -551.2454   654.2709 H6            1 RES     
   20243 H6        -748.1546  -552.9416   654.6298 H6            1 RES     
   20244 H6        -746.8134  -553.7621   652.6698 H6            1 RES     
   20245 H6        -748.1382  -552.6231   652.2384 H6            1 RES     
   20246 H6        -745.1554  -551.8579   652.4614 H6            1 RES     
   20247 H6        -746.4971  -550.7384   652.0303 H6            1 RES     
   20248 H6        -745.1600  -551.5134   650.0811 H6            1 RES     
   20249 H6        -745.5627  -553.2292   650.4404 H6            1 RES     
   20250 H6        -747.9894  -552.7363   649.9681 H6            1 RES     
   20251 H6        -746.9380  -552.2883   648.5852 H6            1 RES     
   20252 H6        -747.5674  -550.9973   649.6745 H6            1 RES     
   20253 C0        -757.1743  -544.9549   668.1154 C0            1 RES     
   20254 C0        -757.2169  -544.1929   669.5012 C0            1 RES     
   20255 C0        -755.9826  -543.7632   669.8556 C0            1 RES     
   20256 S1        -755.9426  -542.9075   671.2989 S1            1 RES     
   20257 C0        -757.6175  -543.0503   671.5473 C0            1 RES     
   20258 C0        -758.1443  -543.8463   670.5201 C0            1 RES     
   20259 C0        -755.0291  -544.2348   668.9215 C0            1 RES     
   20260 C0        -755.6485  -544.9065   667.9777 C0            1 RES     
   20261 C0        -754.7087  -545.5783   667.1246 C0            1 RES     
   20262 C0        -753.4047  -545.3557   667.5280 C0            1 RES     
   20263 S1        -753.2456  -544.2422   668.9350 S1            1 RES     
   20264 H2        -759.1711  -544.1065   670.5186 H2            1 RES     
   20265 H2        -754.9836  -546.2648   666.3807 H2            1 RES     
   20266 N3        -760.5975  -541.6589   673.4515 N3            1 RES     
   20267 C0        -759.8431  -542.3440   672.5470 C0            1 RES     
   20268 C0        -758.4246  -542.3612   672.6158 C0            1 RES     
   20269 C0        -757.8431  -541.6406   673.6812 C0            1 RES     
   20270 N3        -756.5079  -541.5471   673.9131 N3            1 RES     
   20271 S1        -756.4430  -540.5991   675.2634 S1            1 RES     
   20272 N3        -758.0238  -540.2708   675.5965 N3            1 RES     
   20273 C0        -758.6715  -540.9396   674.6061 C0            1 RES     
   20274 C0        -760.0490  -540.9566   674.4730 C0            1 RES     
   20275 H4        -760.3674  -542.8441   671.7592 H4            1 RES     
   20276 C5        -758.8837  -535.1110   672.5929 C5            1 RES     
   20277 C5        -758.1347  -536.4205   672.8399 C5            1 RES     
   20278 C5        -758.8430  -537.6449   672.2357 C5            1 RES     
   20279 C5        -758.8944  -537.6242   670.6970 C5            1 RES     
   20280 C5        -759.5744  -538.8904   670.1543 C5            1 RES     
   20281 C5        -759.4994  -538.9528   668.6128 C5            1 RES     
   20282 C5        -760.1143  -540.2291   667.9791 C5            1 RES     
   20283 C5        -759.5597  -541.4877   668.6485 C5            1 RES     
   20284 C5        -759.7257  -542.8373   667.9056 C5            1 RES     
   20285 C5        -761.1605  -543.4816   667.7849 C5            1 RES     
   20286 C5        -761.5277  -544.0089   669.1998 C5            1 RES     
   20287 C5        -762.7863  -544.7738   669.6261 C5            1 RES     
   20288 C5        -762.5733  -545.0658   671.1481 C5            1 RES     
   20289 C5        -763.6662  -545.8301   671.8933 C5            1 RES     
   20290 C5        -763.7493  -547.2977   671.4925 C5            1 RES     
   20291 C5        -758.6883  -543.0192   666.7881 C5            1 RES     
   20292 C0        -758.0262  -544.4578   666.7919 C0            1 RES     
   20293 C5        -757.4925  -544.7782   665.3292 C5            1 RES     
   20294 C5        -757.9773  -546.1027   664.6425 C5            1 RES     
   20295 C5        -757.1166  -547.3538   664.9817 C5            1 RES     
   20296 C5        -755.7598  -547.4399   664.2432 C5            1 RES     
   20297 C5        -754.8225  -548.5257   664.8072 C5            1 RES     
   20298 C5        -755.2542  -549.9751   664.5342 C5            1 RES     
   20299 C5        -755.2863  -550.3673   663.0443 C5            1 RES     
   20300 C5        -753.9311  -550.2063   662.3484 C5            1 RES     
   20301 C5        -758.2357  -545.9464   663.0936 C5            1 RES     
   20302 C5        -757.1515  -545.2045   662.2641 C5            1 RES     
   20303 C5        -757.3456  -545.2883   660.7334 C5            1 RES     
   20304 C5        -758.6475  -544.6568   660.2016 C5            1 RES     
   20305 C5        -758.7612  -544.7153   658.6584 C5            1 RES     
   20306 C5        -757.7176  -543.8417   657.9278 C5            1 RES     
   20307 C5        -757.8147  -543.9028   656.3913 C5            1 RES     
   20308 C5        -759.1207  -543.3404   655.8301 C5            1 RES     
   20309 H6        -758.9368  -534.8755   671.5110 H6            1 RES     
   20310 H6        -758.3492  -534.2790   673.0978 H6            1 RES     
   20311 H6        -759.9119  -535.1749   673.0084 H6            1 RES     
   20312 H6        -757.1005  -536.3415   672.4389 H6            1 RES     
   20313 H6        -758.0659  -536.5693   673.9397 H6            1 RES     
   20314 H6        -758.2741  -538.5476   672.5529 H6            1 RES     
   20315 H6        -759.8702  -537.7208   672.6531 H6            1 RES     
   20316 H6        -757.8496  -537.5752   670.3158 H6            1 RES     
   20317 H6        -759.4517  -536.7381   670.3303 H6            1 RES     
   20318 H6        -759.0302  -539.7585   670.5835 H6            1 RES     
   20319 H6        -760.6332  -538.9267   670.4889 H6            1 RES     
   20320 H6        -759.9900  -538.0600   668.1690 H6            1 RES     
   20321 H6        -758.4222  -538.9224   668.3333 H6            1 RES     
   20322 H6        -761.2220  -540.2326   668.0668 H6            1 RES     
   20323 H6        -759.8449  -540.2162   666.9009 H6            1 RES     
   20324 H6        -759.9966  -541.5555   669.6623 H6            1 RES     
   20325 H6        -758.4653  -541.3434   668.7974 H6            1 RES     
   20326 H6        -759.2815  -543.4907   668.5649 H6            1 RES     
   20327 H6        -761.8932  -542.7511   667.3822 H6            1 RES     
   20328 H6        -761.1228  -544.3639   667.1084 H6            1 RES     
   20329 H6        -760.7458  -544.7638   669.4061 H6            1 RES     
   20330 H6        -761.4723  -543.1333   669.8683 H6            1 RES     
   20331 H6        -762.8776  -545.7192   669.0487 H6            1 RES     
   20332 H6        -763.6937  -544.1529   669.4764 H6            1 RES     
   20333 H6        -761.6162  -545.6179   671.3035 H6            1 RES     
   20334 H6        -762.4749  -544.0873   671.6676 H6            1 RES     
   20335 H6        -764.6438  -545.3223   671.7671 H6            1 RES     
   20336 H6        -763.4000  -545.8077   672.9754 H6            1 RES     
   20337 H6        -762.7699  -547.7975   671.6633 H6            1 RES     
   20338 H6        -764.0393  -547.4012   670.4290 H6            1 RES     
   20339 H6        -764.5074  -547.8022   672.1292 H6            1 RES     
   20340 H6        -757.8318  -542.3194   666.8986 H6            1 RES     
   20341 H6        -759.2098  -542.7464   665.8453 H6            1 RES     
   20342 H6        -757.9648  -544.0113   664.6865 H6            1 RES     
   20343 H6        -756.4135  -544.5668   665.1921 H6            1 RES     
   20344 H6        -758.9844  -546.3148   665.0675 H6            1 RES     
   20345 H6        -756.9740  -547.3676   666.0825 H6            1 RES     
   20346 H6        -757.6901  -548.2676   664.7143 H6            1 RES     
   20347 H6        -755.9108  -547.6164   663.1613 H6            1 RES     
   20348 H6        -755.2342  -546.4708   664.3339 H6            1 RES     
   20349 H6        -753.8086  -548.3702   664.3859 H6            1 RES     
   20350 H6        -754.7249  -548.3960   665.9046 H6            1 RES     
   20351 H6        -756.2526  -550.1578   664.9838 H6            1 RES     
   20352 H6        -754.5292  -550.6435   665.0483 H6            1 RES     
   20353 H6        -756.0518  -549.7776   662.4993 H6            1 RES     
   20354 H6        -755.5793  -551.4372   662.9836 H6            1 RES     
   20355 H6        -753.1498  -550.7922   662.8784 H6            1 RES     
   20356 H6        -754.0037  -550.5734   661.3037 H6            1 RES     
   20357 H6        -753.6249  -549.1407   662.3056 H6            1 RES     
   20358 H6        -759.1670  -545.3542   662.9625 H6            1 RES     
   20359 H6        -758.4316  -546.9555   662.6698 H6            1 RES     
   20360 H6        -756.1505  -545.6169   662.4480 H6            1 RES     
   20361 H6        -757.1118  -544.1363   662.5664 H6            1 RES     
   20362 H6        -756.4791  -544.7614   660.2866 H6            1 RES     
   20363 H6        -757.3014  -546.3537   660.4161 H6            1 RES     
   20364 H6        -758.7222  -543.5974   660.5299 H6            1 RES     
   20365 H6        -759.5063  -545.2173   660.6236 H6            1 RES     
   20366 H6        -758.6760  -545.7704   658.3175 H6            1 RES     
   20367 H6        -759.7756  -544.3477   658.3893 H6            1 RES     
   20368 H6        -756.6988  -544.1919   658.1868 H6            1 RES     
   20369 H6        -757.8188  -542.7849   658.2582 H6            1 RES     
   20370 H6        -756.9812  -543.2965   655.9725 H6            1 RES     
   20371 H6        -757.6837  -544.9507   656.0455 H6            1 RES     
   20372 H6        -759.9914  -543.9426   656.1580 H6            1 RES     
   20373 H6        -759.0846  -543.3701   654.7198 H6            1 RES     
   20374 H6        -759.2557  -542.2852   656.1492 H6            1 RES     
   20375 C0        -764.5177  -539.2103   676.9271 C0            1 RES     
   20376 C0        -764.1914  -538.8040   678.4209 C0            1 RES     
   20377 C0        -762.8553  -538.6937   678.6118 C0            1 RES     
   20378 S1        -762.4206  -538.2261   680.1640 S1            1 RES     
   20379 C0        -764.0318  -538.1282   680.6948 C0            1 RES     
   20380 C0        -764.8624  -538.5525   679.6477 C0            1 RES     
   20381 C0        -762.1733  -539.0894   677.4360 C0            1 RES     
   20382 C0        -763.0544  -539.3985   676.5120 C0            1 RES     
   20383 C0        -762.4164  -540.0023   675.3760 C0            1 RES     
   20384 C0        -761.0499  -540.1138   675.5583 C0            1 RES     
   20385 S1        -760.4506  -539.4120   677.1053 S1            1 RES     
   20386 H2        -765.9097  -538.6210   679.7902 H2            1 RES     
   20387 H2        -762.9384  -540.4334   674.5748 H2            1 RES     
   20388 N3        -766.3309  -536.7293   683.3780 N3            1 RES     
   20389 C0        -765.8825  -537.3012   682.2253 C0            1 RES     
   20390 C0        -764.5061  -537.5823   682.0157 C0            1 RES     
   20391 C0        -763.6333  -537.2487   683.0737 C0            1 RES     
   20392 N3        -762.2897  -537.4482   683.0592 N3            1 RES     
   20393 S1        -761.8250  -536.8746   684.5360 S1            1 RES     
   20394 N3        -763.2321  -536.3633   685.2260 N3            1 RES     
   20395 C0        -764.1468  -536.6535   684.2633 C0            1 RES     
   20396 C0        -765.5003  -536.3970   684.3964 C0            1 RES     
   20397 H4        -766.6119  -537.5000   681.4678 H4            1 RES     
   20398 C5        -763.4036  -530.5692   683.5575 C5            1 RES     
   20399 C5        -762.9236  -532.0101   683.3843 C5            1 RES     
   20400 C5        -763.9585  -532.9125   682.6910 C5            1 RES     
   20401 C5        -764.2309  -532.5181   681.2278 C5            1 RES     
   20402 C5        -765.2384  -533.4800   680.5795 C5            1 RES     
   20403 C5        -765.4070  -533.1866   679.0725 C5            1 RES     
   20404 C5        -766.3671  -534.1478   678.3223 C5            1 RES     
   20405 C5        -766.0016  -535.6065   678.6024 C5            1 RES     
   20406 C5        -766.5600  -536.6905   677.6463 C5            1 RES     
   20407 C5        -768.1011  -537.0262   677.6746 C5            1 RES     
   20408 C5        -768.3594  -537.8018   678.9961 C5            1 RES     
   20409 C5        -769.6752  -538.4135   679.4913 C5            1 RES     
   20410 C5        -769.3072  -539.0913   680.8523 C5            1 RES     
   20411 C5        -770.4159  -539.8072   681.6218 C5            1 RES     
   20412 C5        -770.8690  -541.0997   680.9543 C5            1 RES     
   20413 C5        -765.7622  -536.7804   676.3374 C5            1 RES     
   20414 C0        -765.4297  -538.2718   675.9211 C0            1 RES     
   20415 C5        -765.1989  -538.3240   674.3492 C5            1 RES     
   20416 C5        -766.0515  -539.3414   673.5134 C5            1 RES     
   20417 C5        -765.4375  -540.7681   673.4193 C5            1 RES     
   20418 C5        -764.2548  -540.9125   672.4323 C5            1 RES     
   20419 C5        -763.4984  -542.2480   672.5730 C5            1 RES     
   20420 C5        -764.2653  -543.4924   672.0987 C5            1 RES     
   20421 C5        -764.6002  -543.5076   670.5946 C5            1 RES     
   20422 C5        -763.3599  -543.4258   669.6992 C5            1 RES     
   20423 C5        -766.4964  -538.7789   672.1077 C5            1 RES     
   20424 C5        -765.4133  -538.0628   671.2543 C5            1 RES     
   20425 C5        -765.8447  -537.7453   669.8048 C5            1 RES     
   20426 C5        -767.0456  -536.7876   669.6726 C5            1 RES     
   20427 C5        -767.3958  -536.4570   668.2009 C5            1 RES     
   20428 C5        -766.3093  -535.6315   667.4770 C5            1 RES     
   20429 C5        -766.6430  -535.3078   666.0082 C5            1 RES     
   20430 C5        -767.8669  -534.4085   665.8344 C5            1 RES     
   20431 H6        -763.5643  -530.0779   682.5769 H6            1 RES     
   20432 H6        -762.6350  -529.9878   684.1090 H6            1 RES     
   20433 H6        -764.3487  -530.5489   684.1407 H6            1 RES     
   20434 H6        -761.9673  -532.0205   682.8170 H6            1 RES     
   20435 H6        -762.7265  -532.4257   684.3968 H6            1 RES     
   20436 H6        -763.5552  -533.9500   682.7026 H6            1 RES     
   20437 H6        -764.9050  -532.9043   683.2734 H6            1 RES     
   20438 H6        -763.2679  -532.5638   680.6713 H6            1 RES     
   20439 H6        -764.6339  -531.4868   681.1630 H6            1 RES     
   20440 H6        -764.8349  -534.5066   680.7105 H6            1 RES     
   20441 H6        -766.2191  -533.4088   681.0966 H6            1 RES     
   20442 H6        -765.7555  -532.1422   678.9223 H6            1 RES     
   20443 H6        -764.4015  -533.2798   678.6036 H6            1 RES     
   20444 H6        -767.4245  -533.9780   678.6184 H6            1 RES     
   20445 H6        -766.2634  -533.9266   677.2381 H6            1 RES     
   20446 H6        -766.2883  -535.8356   679.6457 H6            1 RES     
   20447 H6        -764.8919  -535.6956   678.5647 H6            1 RES     
   20448 H6        -766.1734  -537.5491   678.0611 H6            1 RES     
   20449 H6        -768.7120  -536.1042   677.5773 H6            1 RES     
   20450 H6        -768.3531  -537.7151   676.8383 H6            1 RES     
   20451 H6        -767.7352  -538.7090   678.8906 H6            1 RES     
   20452 H6        -768.0200  -537.1337   679.8056 H6            1 RES     
   20453 H6        -770.0508  -539.1636   678.7621 H6            1 RES     
   20454 H6        -770.4410  -537.6258   679.6480 H6            1 RES     
   20455 H6        -768.4780  -539.8233   680.7054 H6            1 RES     
   20456 H6        -768.9263  -538.2970   681.5313 H6            1 RES     
   20457 H6        -771.2700  -539.1208   681.7916 H6            1 RES     
   20458 H6        -769.9942  -540.0894   682.6142 H6            1 RES     
   20459 H6        -770.0047  -541.7893   680.8286 H6            1 RES     
   20460 H6        -771.3281  -540.8952   679.9678 H6            1 RES     
   20461 H6        -771.6147  -541.6002   681.6083 H6            1 RES     
   20462 H6        -764.7692  -536.2881   676.4215 H6            1 RES     
   20463 H6        -766.3467  -536.2045   675.5878 H6            1 RES     
   20464 H6        -765.5859  -537.3557   673.9789 H6            1 RES     
   20465 H6        -764.1319  -538.2783   674.0536 H6            1 RES     
   20466 H6        -767.0065  -539.4686   674.0715 H6            1 RES     
   20467 H6        -765.1402  -541.0678   674.4459 H6            1 RES     
   20468 H6        -766.2261  -541.4772   673.0865 H6            1 RES     
   20469 H6        -764.5981  -540.7977   671.3866 H6            1 RES     
   20470 H6        -763.5268  -540.1001   672.6158 H6            1 RES     
   20471 H6        -762.5483  -542.1769   672.0055 H6            1 RES     
   20472 H6        -763.2144  -542.4019   673.6343 H6            1 RES     
   20473 H6        -765.2021  -543.5989   672.6848 H6            1 RES     
   20474 H6        -763.6322  -544.3801   672.3171 H6            1 RES     
   20475 H6        -765.2940  -542.6807   670.3383 H6            1 RES     
   20476 H6        -765.1207  -544.4641   670.3749 H6            1 RES     
   20477 H6        -762.6524  -544.2483   669.9389 H6            1 RES     
   20478 H6        -763.6628  -543.5157   668.6354 H6            1 RES     
   20479 H6        -762.8429  -542.4511   669.8162 H6            1 RES     
   20480 H6        -767.2885  -538.0188   672.2810 H6            1 RES     
   20481 H6        -766.9637  -539.6081   671.5331 H6            1 RES     
   20482 H6        -764.5077  -538.6759   671.1548 H6            1 RES     
   20483 H6        -765.1021  -537.1210   671.7543 H6            1 RES     
   20484 H6        -764.9614  -537.2874   669.3169 H6            1 RES     
   20485 H6        -766.0767  -538.6956   669.2749 H6            1 RES     
   20486 H6        -766.8428  -535.8403   670.2178 H6            1 RES     
   20487 H6        -767.9323  -537.2730   670.1285 H6            1 RES     
   20488 H6        -767.5894  -537.3991   667.6425 H6            1 RES     
   20489 H6        -768.3366  -535.8643   668.2121 H6            1 RES     
   20490 H6        -765.3620  -536.2060   667.4590 H6            1 RES     
   20491 H6        -766.1324  -534.6825   668.0288 H6            1 RES     
   20492 H6        -765.7704  -534.7750   665.5695 H6            1 RES     
   20493 H6        -766.7915  -536.2499   665.4377 H6            1 RES     
   20494 H6        -768.7880  -534.9093   666.1937 H6            1 RES     
   20495 H6        -768.0024  -534.1795   664.7554 H6            1 RES     
   20496 H6        -767.7246  -533.4524   666.3814 H6            1 RES     
   20497 C0        -769.0800  -534.5289   687.9654 C0            1 RES     
   20498 C0        -768.4574  -534.5528   689.4197 C0            1 RES     
   20499 C0        -767.1154  -534.7267   689.3690 C0            1 RES     
   20500 S1        -766.3665  -534.7247   690.8710 S1            1 RES     
   20501 C0        -767.8230  -534.4751   691.7097 C0            1 RES     
   20502 C0        -768.8704  -534.4864   690.7774 C0            1 RES     
   20503 C0        -766.7150  -534.9448   688.0288 C0            1 RES     
   20504 C0        -767.7684  -534.8664   687.2478 C0            1 RES     
   20505 C0        -767.4491  -535.2852   685.9118 C0            1 RES     
   20506 C0        -766.1265  -535.6743   685.8019 C0            1 RES     
   20507 S1        -765.1693  -535.4761   687.3150 S1            1 RES     
   20508 H2        -769.8754  -534.4022   691.1013 H2            1 RES     
   20509 H2        -768.1637  -535.4153   685.1550 H2            1 RES     
   20510 N3        -769.3479  -533.3733   695.0117 N3            1 RES     
   20511 C0        -769.2073  -533.7244   693.7026 C0            1 RES     
   20512 C0        -767.9693  -534.1843   693.1800 C0            1 RES     
   20513 C0        -766.8988  -534.2697   694.0962 C0            1 RES     
   20514 N3        -765.6461  -534.6922   693.7838 N3            1 RES     
   20515 S1        -764.8567  -534.5763   695.2293 S1            1 RES     
   20516 N3        -766.0044  -534.0052   696.2658 N3            1 RES     
   20517 C0        -767.0919  -533.8937   695.4580 C0            1 RES     
   20518 C0        -768.3244  -533.4432   695.8977 C0            1 RES     
   20519 H4        -770.0661  -533.6067   693.0748 H4            1 RES     
   20520 C5        -765.1781  -528.0428   695.8761 C5            1 RES     
   20521 C5        -765.0482  -529.4625   695.3245 C5            1 RES     
   20522 C5        -766.3427  -529.9788   694.6737 C5            1 RES     
   20523 C5        -766.7377  -529.2067   693.4014 C5            1 RES     
   20524 C5        -768.0119  -529.7952   692.7766 C5            1 RES     
   20525 C5        -768.3346  -529.1274   691.4218 C5            1 RES     
   20526 C5        -769.5779  -529.6995   690.6902 C5            1 RES     
   20527 C5        -769.4953  -531.2238   690.5921 C5            1 RES     
   20528 C5        -770.4074  -531.9345   689.5607 C5            1 RES     
   20529 C5        -771.9632  -531.9922   689.8152 C5            1 RES     
   20530 C5        -772.1831  -533.0019   690.9757 C5            1 RES     
   20531 C5        -773.5114  -533.4736   691.5791 C5            1 RES     
   20532 C5        -773.0998  -534.5090   692.6772 C5            1 RES     
   20533 C5        -774.2098  -535.1816   693.4830 C5            1 RES     
   20534 C5        -775.0221  -536.1787   692.6660 C5            1 RES     
   20535 C5        -769.8496  -531.8493   688.1326 C5            1 RES     
   20536 C0        -769.9086  -533.2336   687.3656 C0            1 RES     
   20537 C5        -769.9291  -532.9504   685.8016 C5            1 RES     
   20538 C5        -771.0933  -533.5746   684.9556 C5            1 RES     
   20539 C5        -770.8192  -535.0230   684.4571 C5            1 RES     
   20540 C5        -769.8537  -535.1336   683.2532 C5            1 RES     
   20541 C5        -769.3879  -536.5755   682.9713 C5            1 RES     
   20542 C5        -770.4645  -537.5175   682.4098 C5            1 RES     
   20543 C5        -771.0133  -537.1161   681.0269 C5            1 RES     
   20544 C5        -769.9303  -537.0424   679.9459 C5            1 RES     
   20545 C5        -771.6104  -532.6254   683.8058 C5            1 RES     
   20546 C5        -770.5375  -531.9282   682.9245 C5            1 RES     
   20547 C5        -771.1003  -531.2049   681.6803 C5            1 RES     
   20548 C5        -772.0748  -530.0482   681.9787 C5            1 RES     
   20549 C5        -772.5597  -529.3214   680.7002 C5            1 RES     
   20550 C5        -771.4410  -528.5510   679.9648 C5            1 RES     
   20551 C5        -771.9111  -527.8343   678.6845 C5            1 RES     
   20552 C5        -772.9264  -526.7194   678.9355 C5            1 RES     
   20553 H6        -765.3732  -527.3123   695.0654 H6            1 RES     
   20554 H6        -764.2302  -527.7529   696.3764 H6            1 RES     
   20555 H6        -766.0004  -527.9965   696.6215 H6            1 RES     
   20556 H6        -764.2107  -529.5051   694.5941 H6            1 RES     
   20557 H6        -764.7971  -530.1346   696.1741 H6            1 RES     
   20558 H6        -766.1733  -531.0434   694.3963 H6            1 RES     
   20559 H6        -767.1690  -529.9435   695.4162 H6            1 RES     
   20560 H6        -765.8996  -529.2867   692.6731 H6            1 RES     
   20561 H6        -766.9160  -528.1353   693.6265 H6            1 RES     
   20562 H6        -767.8223  -530.8780   692.6160 H6            1 RES     
   20563 H6        -768.8673  -529.6783   693.4757 H6            1 RES     
   20564 H6        -768.4701  -528.0329   691.5570 H6            1 RES     
   20565 H6        -767.4528  -529.2811   690.7597 H6            1 RES     
   20566 H6        -770.5190  -529.4224   691.2119 H6            1 RES     
   20567 H6        -769.5906  -529.2487   689.6744 H6            1 RES     
   20568 H6        -769.6670  -531.6403   691.6021 H6            1 RES     
   20569 H6        -768.4483  -531.4943   690.3248 H6            1 RES     
   20570 H6        -770.1563  -532.9212   689.7100 H6            1 RES     
   20571 H6        -772.3705  -530.9812   690.0267 H6            1 RES     
   20572 H6        -772.4773  -532.4076   688.9205 H6            1 RES     
   20573 H6        -771.7898  -533.9530   690.5700 H6            1 RES     
   20574 H6        -771.5931  -532.6153   691.8237 H6            1 RES     
   20575 H6        -774.1421  -533.9513   690.7984 H6            1 RES     
   20576 H6        -774.0594  -532.6241   692.0368 H6            1 RES     
   20577 H6        -772.4772  -535.3187   692.2281 H6            1 RES     
   20578 H6        -772.4620  -533.9781   693.4177 H6            1 RES     
   20579 H6        -774.8629  -534.4166   693.9496 H6            1 RES     
   20580 H6        -773.7163  -535.7609   694.2975 H6            1 RES     
   20581 H6        -774.3535  -536.9591   692.2391 H6            1 RES     
   20582 H6        -775.5675  -535.6685   691.8487 H6            1 RES     
   20583 H6        -775.7526  -536.6817   693.3352 H6            1 RES     
   20584 H6        -768.7730  -531.5727   688.1230 H6            1 RES     
   20585 H6        -770.4017  -531.0186   687.6424 H6            1 RES     
   20586 H6        -770.1506  -531.8696   685.7173 H6            1 RES     
   20587 H6        -768.9327  -533.0233   685.3223 H6            1 RES     
   20588 H6        -771.9603  -533.6616   685.6488 H6            1 RES     
   20589 H6        -770.4445  -535.6052   685.3246 H6            1 RES     
   20590 H6        -771.7814  -535.4834   684.1446 H6            1 RES     
   20591 H6        -770.3152  -534.7154   682.3385 H6            1 RES     
   20592 H6        -768.9500  -534.5285   683.4550 H6            1 RES     
   20593 H6        -768.5390  -536.5392   682.2586 H6            1 RES     
   20594 H6        -768.9898  -537.0244   683.9043 H6            1 RES     
   20595 H6        -771.3053  -537.5945   683.1305 H6            1 RES     
   20596 H6        -770.0105  -538.5285   682.3173 H6            1 RES     
   20597 H6        -771.5444  -536.1436   681.0822 H6            1 RES     
   20598 H6        -771.7528  -537.8867   680.7211 H6            1 RES     
   20599 H6        -769.3875  -538.0091   679.8728 H6            1 RES     
   20600 H6        -770.3992  -536.8226   678.9644 H6            1 RES     
   20601 H6        -769.2055  -536.2295   680.1574 H6            1 RES     
   20602 H6        -772.1872  -531.8017   684.2790 H6            1 RES     
   20603 H6        -772.3237  -533.1993   683.1751 H6            1 RES     
   20604 H6        -769.8087  -532.6488   682.5304 H6            1 RES     
   20605 H6        -769.9618  -531.2015   683.5365 H6            1 RES     
   20606 H6        -770.2216  -530.8062   681.1355 H6            1 RES     
   20607 H6        -771.6056  -531.9464   681.0226 H6            1 RES     
   20608 H6        -771.5960  -529.3080   682.6560 H6            1 RES     
   20609 H6        -772.9675  -530.4649   682.4878 H6            1 RES     
   20610 H6        -773.0305  -530.0549   680.0096 H6            1 RES     
   20611 H6        -773.3399  -528.5929   681.0121 H6            1 RES     
   20612 H6        -770.6517  -529.2614   679.6488 H6            1 RES     
   20613 H6        -770.9859  -527.8063   680.6538 H6            1 RES     
   20614 H6        -771.0194  -527.3739   678.2043 H6            1 RES     
   20615 H6        -772.3400  -528.5729   677.9735 H6            1 RES     
   20616 H6        -773.8698  -527.1221   679.3553 H6            1 RES     
   20617 H6        -773.1677  -526.2206   677.9722 H6            1 RES     
   20618 H6        -772.5039  -525.9608   679.6280 H6            1 RES     
   20619 C0        -770.8548  -531.8793   700.3914 C0            1 RES     
   20620 C0        -770.0439  -532.3566   701.6632 C0            1 RES     
   20621 C0        -768.7926  -532.7457   701.3217 C0            1 RES     
   20622 S1        -767.8471  -533.2317   702.6204 S1            1 RES     
   20623 C0        -769.0765  -532.9375   703.7559 C0            1 RES     
   20624 C0        -770.2280  -532.5433   703.0595 C0            1 RES     
   20625 C0        -768.6506  -532.7059   699.9137 C0            1 RES     
   20626 C0        -769.7664  -532.2610   699.3820 C0            1 RES     
   20627 C0        -769.7449  -532.3996   697.9528 C0            1 RES     
   20628 C0        -768.5671  -532.9769   697.5144 C0            1 RES     
   20629 S1        -767.3769  -533.3146   698.8237 S1            1 RES     
   20630 H2        -771.1327  -532.3639   703.5805 H2            1 RES     
   20631 H2        -770.5745  -532.2191   697.3369 H2            1 RES     
   20632 N3        -769.8259  -532.4021   707.4430 N3            1 RES     
   20633 C0        -769.9585  -532.4512   706.0877 C0            1 RES     
   20634 C0        -768.9384  -532.9833   705.2548 C0            1 RES     
   20635 C0        -767.7876  -533.4699   705.9116 C0            1 RES     
   20636 N3        -766.7144  -534.0188   705.2853 N3            1 RES     
   20637 S1        -765.7138  -534.3897   706.5452 S1            1 RES     
   20638 N3        -766.5469  -533.8893   707.8768 N3            1 RES     
   20639 C0        -767.6926  -533.4004   707.3326 C0            1 RES     
   20640 C0        -768.7215  -532.8586   708.0829 C0            1 RES     
   20641 H4        -770.8554  -532.0393   705.6737 H4            1 RES     
   20642 C5        -764.5324  -528.2445   708.5576 C5            1 RES     
   20643 C5        -764.7918  -529.4927   707.7141 C5            1 RES     
   20644 C5        -766.2484  -529.6047   707.2327 C5            1 RES     
   20645 C5        -766.6527  -528.4956   706.2441 C5            1 RES     
   20646 C5        -768.1012  -528.6864   705.7690 C5            1 RES     
   20647 C5        -768.4702  -527.6700   704.6661 C5            1 RES     
   20648 C5        -769.9012  -527.8251   704.0858 C5            1 RES     
   20649 C5        -770.1616  -529.2726   703.6655 C5            1 RES     
   20650 C5        -771.3467  -529.5470   702.7057 C5            1 RES     
   20651 C5        -772.8237  -529.3901   703.2369 C5            1 RES     
   20652 C5        -773.0805  -530.5921   704.1877 C5            1 RES     
   20653 C5        -774.3749  -530.9535   704.9259 C5            1 RES     
   20654 C5        -774.0365  -532.2756   705.6904 C5            1 RES     
   20655 C5        -775.1330  -532.9154   706.5401 C5            1 RES     
   20656 C5        -776.2512  -533.5317   705.7087 C5            1 RES     
   20657 C5        -771.0007  -529.2240   701.2449 C5            1 RES     
   20658 C0        -771.4668  -530.3541   700.2381 C0            1 RES     
   20659 C5        -771.6570  -529.7084   698.7981 C5            1 RES     
   20660 C5        -773.0396  -529.9000   698.0822 C5            1 RES     
   20661 C5        -773.1581  -531.2134   697.2562 C5            1 RES     
   20662 C5        -772.4272  -531.2022   695.8926 C5            1 RES     
   20663 C5        -772.3272  -532.5945   695.2391 C5            1 RES     
   20664 C5        -773.6510  -533.1727   694.7149 C5            1 RES     
   20665 C5        -774.2995  -532.3645   693.5742 C5            1 RES     
   20666 C5        -773.3976  -532.2270   692.3435 C5            1 RES     
   20667 C5        -773.5059  -528.6294   697.2708 C5            1 RES     
   20668 C5        -772.4511  -527.9417   696.3607 C5            1 RES     
   20669 C5        -773.0238  -526.8565   695.4213 C5            1 RES     
   20670 C5        -773.6736  -525.6516   696.1303 C5            1 RES     
   20671 C5        -774.1753  -524.5685   695.1438 C5            1 RES     
   20672 C5        -773.0390  -523.8536   694.3798 C5            1 RES     
   20673 C5        -773.5289  -522.7824   693.3867 C5            1 RES     
   20674 C5        -774.2340  -521.5991   694.0494 C5            1 RES     
   20675 H6        -764.6844  -527.3198   707.9654 H6            1 RES     
   20676 H6        -763.4812  -528.2524   708.9151 H6            1 RES     
   20677 H6        -765.2064  -528.2334   709.4405 H6            1 RES     
   20678 H6        -764.1001  -529.5066   706.8436 H6            1 RES     
   20679 H6        -764.5675  -530.3806   708.3448 H6            1 RES     
   20680 H6        -766.3532  -530.5857   706.7172 H6            1 RES     
   20681 H6        -766.9291  -529.6027   708.1112 H6            1 RES     
   20682 H6        -765.9681  -528.5458   705.3678 H6            1 RES     
   20683 H6        -766.5627  -527.4942   706.7125 H6            1 RES     
   20684 H6        -768.1732  -529.7159   705.3580 H6            1 RES     
   20685 H6        -768.7990  -528.5910   706.6281 H6            1 RES     
   20686 H6        -768.3472  -526.6326   705.0447 H6            1 RES     
   20687 H6        -767.7493  -527.8140   703.8300 H6            1 RES     
   20688 H6        -770.6737  -527.5195   704.8237 H6            1 RES     
   20689 H6        -769.9672  -527.1508   703.2048 H6            1 RES     
   20690 H6        -770.2672  -529.8805   704.5835 H6            1 RES     
   20691 H6        -769.2479  -529.6509   703.1530 H6            1 RES     
   20692 H6        -771.2929  -530.5692   702.6000 H6            1 RES     
   20693 H6        -772.9697  -528.4031   703.7238 H6            1 RES     
   20694 H6        -773.5411  -529.4845   702.3919 H6            1 RES     
   20695 H6        -772.9638  -531.4732   703.5291 H6            1 RES     
   20696 H6        -772.3029  -530.5274   704.9673 H6            1 RES     
   20697 H6        -775.2013  -531.1140   704.2001 H6            1 RES     
   20698 H6        -774.6549  -530.1546   705.6434 H6            1 RES     
   20699 H6        -773.6746  -533.0517   704.9750 H6            1 RES     
   20700 H6        -773.1977  -532.0560   706.3870 H6            1 RES     
   20701 H6        -775.5313  -532.1810   707.2692 H6            1 RES     
   20702 H6        -774.6600  -533.7488   707.1095 H6            1 RES     
   20703 H6        -775.8354  -534.2930   705.0117 H6            1 RES     
   20704 H6        -776.7896  -532.7546   705.1325 H6            1 RES     
   20705 H6        -776.9653  -534.0434   706.3890 H6            1 RES     
   20706 H6        -769.9034  -529.1459   701.0854 H6            1 RES     
   20707 H6        -771.4287  -528.2171   701.0493 H6            1 RES     
   20708 H6        -771.6525  -528.6169   698.9797 H6            1 RES     
   20709 H6        -770.7812  -529.8387   698.1319 H6            1 RES     
   20710 H6        -773.7931  -529.9960   698.8964 H6            1 RES     
   20711 H6        -772.7925  -532.0415   697.8987 H6            1 RES     
   20712 H6        -774.2318  -531.4106   697.0472 H6            1 RES     
   20713 H6        -772.9186  -530.5045   695.1881 H6            1 RES     
   20714 H6        -771.3954  -530.8302   696.0361 H6            1 RES     
   20715 H6        -771.6049  -532.5391   694.3994 H6            1 RES     
   20716 H6        -771.9008  -533.3147   695.9672 H6            1 RES     
   20717 H6        -774.3730  -533.2702   695.5526 H6            1 RES     
   20718 H6        -773.4424  -534.1961   694.3332 H6            1 RES     
   20719 H6        -774.5963  -531.3555   693.9272 H6            1 RES     
   20720 H6        -775.2234  -532.8986   693.2657 H6            1 RES     
   20721 H6        -773.0908  -533.2283   691.9725 H6            1 RES     
   20722 H6        -773.9483  -531.7016   691.5360 H6            1 RES     
   20723 H6        -772.4927  -531.6274   692.5730 H6            1 RES     
   20724 H6        -773.8171  -527.8537   698.0034 H6            1 RES     
   20725 H6        -774.4106  -528.9030   696.6853 H6            1 RES     
   20726 H6        -771.9595  -528.6643   695.6958 H6            1 RES     
   20727 H6        -771.6494  -527.4936   696.9857 H6            1 RES     
   20728 H6        -772.1705  -526.5000   694.8108 H6            1 RES     
   20729 H6        -773.7673  -527.3203   694.7360 H6            1 RES     
   20730 H6        -772.9530  -525.1891   696.8393 H6            1 RES     
   20731 H6        -774.5495  -526.0144   696.7055 H6            1 RES     
   20732 H6        -774.8887  -525.0229   694.4217 H6            1 RES     
   20733 H6        -774.7270  -523.8100   695.7412 H6            1 RES     
   20734 H6        -772.4753  -524.5956   693.7804 H6            1 RES     
   20735 H6        -772.3386  -523.3855   695.1056 H6            1 RES     
   20736 H6        -772.6403  -522.3846   692.8483 H6            1 RES     
   20737 H6        -774.2060  -523.2441   692.6361 H6            1 RES     
   20738 H6        -775.1691  -521.9183   694.5516 H6            1 RES     
   20739 H6        -774.5027  -520.8514   693.2725 H6            1 RES     
   20740 H6        -773.5616  -521.1127   694.7876 H6            1 RES     
   20741 C0        -770.1672  -531.9888   713.2011 C0            1 RES     
   20742 C0        -769.2982  -532.8889   714.1694 C0            1 RES     
   20743 C0        -768.2235  -533.3986   713.5222 C0            1 RES     
   20744 S1        -767.2225  -534.3371   714.4887 S1            1 RES     
   20745 C0        -768.1791  -534.1104   715.8747 C0            1 RES     
   20746 C0        -769.3097  -533.3668   715.5073 C0            1 RES     
   20747 C0        -768.2858  -533.0510   712.1513 C0            1 RES     
   20748 C0        -769.3468  -532.3042   711.9455 C0            1 RES     
   20749 C0        -769.5667  -532.1009   710.5410 C0            1 RES     
   20750 C0        -768.6175  -532.7546   709.7766 C0            1 RES     
   20751 S1        -767.3469  -533.5967   710.7365 S1            1 RES     
   20752 H2        -770.0680  -533.1607   716.2176 H2            1 RES     
   20753 H2        -770.4203  -531.6369   710.1456 H2            1 RES     
   20754 N3        -768.2438  -534.3436   719.6673 N3            1 RES     
   20755 C0        -768.5825  -534.0453   718.3816 C0            1 RES     
   20756 C0        -767.8342  -534.5344   717.2779 C0            1 RES     
   20757 C0        -766.7298  -535.3569   717.5887 C0            1 RES     
   20758 N3        -765.9032  -535.9205   716.6697 N3            1 RES     
   20759 S1        -764.8302  -536.7494   717.6118 S1            1 RES     
   20760 N3        -765.3311  -536.4417   719.1520 N3            1 RES     
   20761 C0        -766.4133  -535.6447   718.9488 C0            1 RES     
   20762 C0        -767.1803  -535.1251   719.9770 C0            1 RES     
   20763 H4        -769.4217  -533.3963   718.2401 H4            1 RES     
   20764 C5        -762.0789  -531.5628   720.5680 C5            1 RES     
   20765 C5        -762.7207  -532.5096   719.5539 C5            1 RES     
   20766 C5        -764.2223  -532.2472   719.3484 C5            1 RES     
   20767 C5        -764.5217  -530.8819   718.7026 C5            1 RES     
   20768 C5        -766.0315  -530.6977   718.4855 C5            1 RES     
   20769 C5        -766.3335  -529.3999   717.7043 C5            1 RES     
   20770 C5        -767.8342  -529.1597   717.3902 C5            1 RES     
   20771 C5        -768.4572  -530.3973   716.7421 C5            1 RES     
   20772 C5        -769.8019  -530.2240   715.9921 C5            1 RES     
   20773 C5        -771.1163  -529.9416   716.8174 C5            1 RES     
   20774 C5        -771.4806  -531.2709   717.5350 C5            1 RES     
   20775 C5        -772.6988  -531.5649   718.4185 C5            1 RES     
   20776 C5        -772.5416  -533.0691   718.8184 C5            1 RES     
   20777 C5        -773.6117  -533.6902   719.7145 C5            1 RES     
   20778 C5        -774.9461  -533.8857   719.0053 C5            1 RES     
   20779 C5        -769.6145  -529.6289   714.5890 C5            1 RES     
   20780 C0        -770.4549  -530.3879   713.4818 C0            1 RES     
   20781 C5        -770.7133  -529.3956   712.2672 C5            1 RES     
   20782 C5        -772.1951  -529.1665   711.8062 C5            1 RES     
   20783 C5        -772.7122  -530.2044   710.7686 C5            1 RES     
   20784 C5        -772.2054  -529.9977   709.3215 C5            1 RES     
   20785 C5        -772.5028  -531.1903   708.3915 C5            1 RES     
   20786 C5        -773.9822  -531.3864   708.0245 C5            1 RES     
   20787 C5        -774.6042  -530.2297   707.2183 C5            1 RES     
   20788 C5        -773.8856  -529.9639   705.8917 C5            1 RES     
   20789 C5        -772.4937  -527.6780   711.3753 C5            1 RES     
   20790 C5        -771.4625  -526.9895   710.4390 C5            1 RES     
   20791 C5        -771.9224  -525.6292   709.8680 C5            1 RES     
   20792 C5        -772.1877  -524.5326   710.9185 C5            1 RES     
   20793 C5        -772.5864  -523.1755   710.2881 C5            1 RES     
   20794 C5        -771.4492  -522.5100   709.4821 C5            1 RES     
   20795 C5        -771.8401  -521.1648   708.8407 C5            1 RES     
   20796 C5        -772.1702  -520.0681   709.8531 C5            1 RES     
   20797 H6        -762.1156  -530.5120   720.2168 H6            1 RES     
   20798 H6        -761.0127  -531.8393   720.7079 H6            1 RES     
   20799 H6        -762.5970  -531.6439   721.5472 H6            1 RES     
   20800 H6        -762.1843  -532.4372   718.5825 H6            1 RES     
   20801 H6        -762.6007  -533.5471   719.9356 H6            1 RES     
   20802 H6        -764.6094  -533.0437   718.6739 H6            1 RES     
   20803 H6        -764.7495  -532.3348   720.3229 H6            1 RES     
   20804 H6        -764.0008  -530.8416   717.7197 H6            1 RES     
   20805 H6        -764.1517  -530.0521   719.3388 H6            1 RES     
   20806 H6        -766.3818  -531.5711   717.8952 H6            1 RES     
   20807 H6        -766.5581  -530.6884   719.4637 H6            1 RES     
   20808 H6        -765.9371  -528.5202   718.2554 H6            1 RES     
   20809 H6        -765.7917  -529.4651   716.7340 H6            1 RES     
   20810 H6        -768.4059  -528.9077   718.3091 H6            1 RES     
   20811 H6        -767.8840  -528.2946   716.6943 H6            1 RES     
   20812 H6        -768.5535  -531.1776   717.5199 H6            1 RES     
   20813 H6        -767.7313  -530.7970   715.9977 H6            1 RES     
   20814 H6        -769.9841  -531.1849   715.6723 H6            1 RES     
   20815 H6        -770.9744  -529.0886   717.5138 H6            1 RES     
   20816 H6        -771.9540  -529.7054   716.1247 H6            1 RES     
   20817 H6        -771.6536  -531.9768   716.7009 H6            1 RES     
   20818 H6        -770.6007  -531.5305   718.1474 H6            1 RES     
   20819 H6        -773.6383  -531.4012   717.8476 H6            1 RES     
   20820 H6        -772.6925  -530.9231   719.3237 H6            1 RES     
   20821 H6        -772.4637  -533.7040   717.9042 H6            1 RES     
   20822 H6        -771.5818  -533.1715   719.3710 H6            1 RES     
   20823 H6        -773.7317  -533.0919   720.6403 H6            1 RES     
   20824 H6        -773.2490  -534.7046   720.0007 H6            1 RES     
   20825 H6        -774.8101  -534.5204   718.1015 H6            1 RES     
   20826 H6        -775.3850  -532.9121   718.7136 H6            1 RES     
   20827 H6        -775.6445  -534.4112   719.6913 H6            1 RES     
   20828 H6        -768.5618  -529.7086   714.2412 H6            1 RES     
   20829 H6        -769.8416  -528.5455   714.6882 H6            1 RES     
   20830 H6        -770.4488  -528.3966   712.6628 H6            1 RES     
   20831 H6        -769.9938  -529.5152   711.4330 H6            1 RES     
   20832 H6        -772.8229  -529.3196   712.7130 H6            1 RES     
   20833 H6        -772.4412  -531.2122   711.1468 H6            1 RES     
   20834 H6        -773.8220  -530.1552   710.7338 H6            1 RES     
   20835 H6        -772.6348  -529.0778   708.8813 H6            1 RES     
   20836 H6        -771.1083  -529.8571   709.3370 H6            1 RES     
   20837 H6        -771.9176  -531.0644   707.4580 H6            1 RES     
   20838 H6        -772.1375  -532.1261   708.8621 H6            1 RES     
   20839 H6        -774.5765  -531.5521   708.9475 H6            1 RES     
   20840 H6        -774.0558  -532.3101   707.4098 H6            1 RES     
   20841 H6        -774.6230  -529.2975   707.8195 H6            1 RES     
   20842 H6        -775.6561  -530.5050   706.9907 H6            1 RES     
   20843 H6        -773.8581  -530.8862   705.2728 H6            1 RES     
   20844 H6        -774.4245  -529.1737   705.3290 H6            1 RES     
   20845 H6        -772.8497  -529.6040   706.0604 H6            1 RES     
   20846 H6        -772.5202  -527.0565   712.2962 H6            1 RES     
   20847 H6        -773.5122  -527.6419   710.9311 H6            1 RES     
   20848 H6        -771.2404  -527.6080   709.5593 H6            1 RES     
   20849 H6        -770.5003  -526.8502   710.9765 H6            1 RES     
   20850 H6        -771.1123  -525.2930   709.1907 H6            1 RES     
   20851 H6        -772.8408  -525.7793   709.2583 H6            1 RES     
   20852 H6        -771.2883  -524.3853   711.5551 H6            1 RES     
   20853 H6        -773.0261  -524.8625   711.5650 H6            1 RES     
   20854 H6        -773.4791  -523.3133   709.6393 H6            1 RES     
   20855 H6        -772.8688  -522.4961   711.1219 H6            1 RES     
   20856 H6        -771.1519  -523.1752   708.6474 H6            1 RES     
   20857 H6        -770.5656  -522.3577   710.1398 H6            1 RES     
   20858 H6        -770.9765  -520.8124   708.2342 H6            1 RES     
   20859 H6        -772.7034  -521.3091   708.1560 H6            1 RES     
   20860 H6        -773.0672  -520.3286   710.4497 H6            1 RES     
   20861 H6        -772.3847  -519.1221   709.3109 H6            1 RES     
   20862 H6        -771.3079  -519.8965   710.5318 H6            1 RES     
   20863 C0        -767.6345  -535.2567   725.3452 C0            1 RES     
   20864 C0        -766.8447  -536.4989   725.9249 C0            1 RES     
   20865 C0        -766.0115  -537.0204   724.9937 C0            1 RES     
   20866 S1        -765.1026  -538.3219   725.5385 S1            1 RES     
   20867 C0        -765.7732  -538.2671   727.0988 C0            1 RES     
   20868 C0        -766.7604  -537.2713   727.1144 C0            1 RES     
   20869 C0        -766.1998  -536.3517   723.7602 C0            1 RES     
   20870 C0        -767.0952  -535.4035   723.9181 C0            1 RES     
   20871 C0        -767.4716  -534.8371   722.6533 C0            1 RES     
   20872 C0        -766.8075  -535.4463   721.6042 C0            1 RES     
   20873 S1        -765.6187  -536.7014   722.1105 S1            1 RES     
   20874 H2        -767.3437  -537.1104   727.9837 H2            1 RES     
   20875 H2        -768.2550  -534.1503   722.5319 H2            1 RES     
   20876 N3        -765.3253  -539.3795   730.7050 N3            1 RES     
   20877 C0        -765.7786  -538.7297   729.5963 C0            1 RES     
   20878 C0        -765.3234  -539.0659   728.2935 C0            1 RES     
   20879 C0        -764.3869  -540.1190   728.2126 C0            1 RES     
   20880 N3        -763.8449  -540.5839   727.0570 N3            1 RES     
   20881 S1        -762.8466  -541.7876   727.5868 S1            1 RES     
   20882 N3        -763.0371  -541.7718   729.2243 N3            1 RES     
   20883 C0        -763.9419  -540.7725   729.3991 C0            1 RES     
   20884 C0        -764.4197  -540.3860   730.6391 C0            1 RES     
   20885 H4        -766.4712  -537.9291   729.7536 H4            1 RES     
   20886 C5        -758.6449  -538.0160   730.9527 C5            1 RES     
   20887 C5        -759.6167  -538.5674   729.9095 C5            1 RES     
   20888 C5        -761.0411  -538.0049   730.0538 C5            1 RES     
   20889 C5        -761.1338  -536.4946   729.7691 C5            1 RES     
   20890 C5        -762.5844  -536.0026   729.8879 C5            1 RES     
   20891 C5        -762.7141  -534.5242   729.4600 C5            1 RES     
   20892 C5        -764.1583  -533.9573   729.4953 C5            1 RES     
   20893 C5        -765.1201  -534.8767   728.7407 C5            1 RES     
   20894 C5        -766.4924  -534.2975   728.3139 C5            1 RES     
   20895 C5        -767.5794  -533.9936   729.4160 C5            1 RES     
   20896 C5        -768.1094  -535.3703   729.9042 C5            1 RES     
   20897 C5        -769.2181  -535.6478   730.9264 C5            1 RES     
   20898 C5        -769.3286  -537.2075   730.9741 C5            1 RES     
   20899 C5        -770.3624  -537.8264   731.9133 C5            1 RES     
   20900 C5        -771.7974  -537.6112   731.4487 C5            1 RES     
   20901 C5        -766.3915  -533.4284   727.0520 C5            1 RES     
   20902 C0        -767.5287  -533.7434   725.9958 C0            1 RES     
   20903 C5        -767.7456  -532.4615   725.0812 C5            1 RES     
   20904 C5        -769.1957  -531.8736   724.9696 C5            1 RES     
   20905 C5        -770.0701  -532.5283   723.8614 C5            1 RES     
   20906 C5        -769.7503  -532.0758   722.4168 C5            1 RES     
   20907 C5        -770.4298  -532.9423   721.3383 C5            1 RES     
   20908 C5        -771.9544  -532.7834   721.2300 C5            1 RES     
   20909 C5        -772.4269  -531.3778   720.8107 C5            1 RES     
   20910 C5        -771.8722  -530.9345   719.4533 C5            1 RES     
   20911 C5        -769.2296  -530.2968   724.9161 C5            1 RES     
   20912 C5        -768.2250  -529.5971   723.9595 C5            1 RES     
   20913 C5        -768.4628  -528.0813   723.7763 C5            1 RES     
   20914 C5        -768.3294  -527.2366   725.0591 C5            1 RES     
   20915 C5        -768.5176  -525.7204   724.8066 C5            1 RES     
   20916 C5        -767.3962  -525.0921   723.9500 C5            1 RES     
   20917 C5        -767.5810  -523.5860   723.6829 C5            1 RES     
   20918 C5        -767.5158  -522.7209   724.9415 C5            1 RES     
   20919 H6        -758.5075  -536.9222   730.8364 H6            1 RES     
   20920 H6        -757.6536  -538.5002   730.8261 H6            1 RES     
   20921 H6        -759.0178  -538.2354   731.9757 H6            1 RES     
   20922 H6        -759.2267  -538.3614   728.8887 H6            1 RES     
   20923 H6        -759.6661  -539.6704   730.0418 H6            1 RES     
   20924 H6        -761.6846  -538.5379   729.3184 H6            1 RES     
   20925 H6        -761.4249  -538.2278   731.0727 H6            1 RES     
   20926 H6        -760.7673  -536.3138   728.7337 H6            1 RES     
   20927 H6        -760.5051  -535.9177   730.4778 H6            1 RES     
   20928 H6        -763.1965  -536.6356   729.2106 H6            1 RES     
   20929 H6        -762.9464  -536.1339   730.9299 H6            1 RES     
   20930 H6        -762.0619  -533.8839   730.0920 H6            1 RES     
   20931 H6        -762.3481  -534.4509   728.4111 H6            1 RES     
   20932 H6        -764.5208  -533.8347   730.5384 H6            1 RES     
   20933 H6        -764.1243  -532.9567   729.0127 H6            1 RES     
   20934 H6        -765.2650  -535.7902   729.3471 H6            1 RES     
   20935 H6        -764.6146  -535.2089   727.8053 H6            1 RES     
   20936 H6        -766.9209  -535.1077   727.8463 H6            1 RES     
   20937 H6        -767.1573  -533.3688   730.2310 H6            1 RES     
   20938 H6        -768.4402  -533.4566   728.9597 H6            1 RES     
   20939 H6        -768.5504  -535.8164   728.9930 H6            1 RES     
   20940 H6        -767.2247  -535.9179   730.2706 H6            1 RES     
   20941 H6        -770.1746  -535.1913   730.5919 H6            1 RES     
   20942 H6        -768.9411  -535.2507   731.9249 H6            1 RES     
   20943 H6        -769.5241  -537.6106   729.9522 H6            1 RES     
   20944 H6        -768.3421  -537.6047   731.2996 H6            1 RES     
   20945 H6        -770.2137  -537.4537   732.9469 H6            1 RES     
   20946 H6        -770.1866  -538.9271   731.9120 H6            1 RES     
   20947 H6        -771.9353  -538.0266   730.4256 H6            1 RES     
   20948 H6        -772.0563  -536.5347   731.4510 H6            1 RES     
   20949 H6        -772.4828  -538.1538   732.1344 H6            1 RES     
   20950 H6        -765.4434  -533.6063   726.4999 H6            1 RES     
   20951 H6        -766.3646  -532.3770   727.4113 H6            1 RES     
   20952 H6        -767.2183  -531.6473   725.6136 H6            1 RES     
   20953 H6        -767.1996  -532.5036   724.1179 H6            1 RES     
   20954 H6        -769.7008  -532.1254   725.9295 H6            1 RES     
   20955 H6        -769.9679  -533.6285   723.9674 H6            1 RES     
   20956 H6        -771.1365  -532.2786   724.0509 H6            1 RES     
   20957 H6        -770.0334  -531.0171   722.2639 H6            1 RES     
   20958 H6        -768.6585  -532.1373   722.2498 H6            1 RES     
   20959 H6        -769.9755  -532.7027   720.3554 H6            1 RES     
   20960 H6        -770.2074  -534.0121   721.5296 H6            1 RES     
   20961 H6        -772.4274  -533.0569   722.1964 H6            1 RES     
   20962 H6        -772.3137  -533.5070   720.4659 H6            1 RES     
   20963 H6        -772.1572  -530.6266   721.5813 H6            1 RES     
   20964 H6        -773.5352  -531.4025   720.7380 H6            1 RES     
   20965 H6        -772.1342  -531.6735   718.6661 H6            1 RES     
   20966 H6        -772.3068  -529.9515   719.1773 H6            1 RES     
   20967 H6        -770.7700  -530.8121   719.4897 H6            1 RES     
   20968 H6        -768.9864  -529.9171   725.9319 H6            1 RES     
   20969 H6        -770.2711  -529.9785   724.6924 H6            1 RES     
   20970 H6        -768.2726  -530.0180   722.9464 H6            1 RES     
   20971 H6        -767.1867  -529.7602   724.3192 H6            1 RES     
   20972 H6        -767.7087  -527.7410   723.0391 H6            1 RES     
   20973 H6        -769.4717  -527.9190   723.3366 H6            1 RES     
   20974 H6        -767.3354  -527.4046   725.5276 H6            1 RES     
   20975 H6        -769.1140  -527.5585   725.7735 H6            1 RES     
   20976 H6        -769.5049  -525.5415   724.3269 H6            1 RES     
   20977 H6        -768.5220  -525.2198   725.7995 H6            1 RES     
   20978 H6        -767.3746  -525.5815   722.9562 H6            1 RES     
   20979 H6        -766.4133  -525.2576   724.4428 H6            1 RES     
   20980 H6        -766.7612  -523.2565   723.0067 H6            1 RES     
   20981 H6        -768.5466  -523.4101   723.1619 H6            1 RES     
   20982 H6        -768.3496  -522.9545   725.6334 H6            1 RES     
   20983 H6        -767.6008  -521.6506   724.6547 H6            1 RES     
   20984 H6        -766.5463  -522.8691   725.4625 H6            1 RES     
   20985 C0        -764.0935  -541.7074   735.8535 C0            1 RES     
   20986 C0        -763.5106  -543.1703   736.0057 C0            1 RES     
   20987 C0        -762.9550  -543.5932   734.8455 C0            1 RES     
   20988 S1        -762.2750  -545.1254   734.9293 S1            1 RES     
   20989 C0        -762.6804  -545.3262   736.5672 C0            1 RES     
   20990 C0        -763.4185  -544.2056   736.9742 C0            1 RES     
   20991 C0        -763.1761  -542.6283   733.8335 C0            1 RES     
   20992 C0        -763.8148  -541.6031   734.3499 C0            1 RES     
   20993 C0        -764.2440  -540.6956   733.3231 C0            1 RES     
   20994 C0        -763.8879  -541.1447   732.0644 C0            1 RES     
   20995 S1        -762.9334  -542.6724   732.0671 S1            1 RES     
   20996 H2        -763.8190  -544.1562   737.9536 H2            1 RES     
   20997 H2        -764.8718  -539.8733   733.4967 H2            1 RES     
   20998 N3        -761.9529  -547.3241   739.7170 N3            1 RES     
   20999 C0        -762.4155  -546.3606   738.8718 C0            1 RES     
   21000 C0        -762.2403  -546.4520   737.4653 C0            1 RES     
   21001 C0        -761.5729  -547.6030   736.9935 C0            1 RES     
   21002 N3        -761.3195  -547.8676   735.6854 N3            1 RES     
   21003 S1        -760.5345  -549.3183   735.7576 S1            1 RES     
   21004 N3        -760.4732  -549.6588   737.3694 N3            1 RES     
   21005 C0        -761.1076  -548.5872   737.9143 C0            1 RES     
   21006 C0        -761.3032  -548.4287   739.2752 C0            1 RES     
   21007 H4        -762.8900  -545.5117   739.3187 H4            1 RES     
   21008 C5        -755.1739  -547.2501   738.9504 C5            1 RES     
   21009 C5        -756.3843  -547.3589   738.0232 C5            1 RES     
   21010 C5        -757.6182  -546.6063   738.5495 C5            1 RES     
   21011 C5        -757.4270  -545.0794   738.6014 C5            1 RES     
   21012 C5        -758.7052  -544.3835   739.0939 C5            1 RES     
   21013 C5        -758.5777  -542.8466   739.0089 C5            1 RES     
   21014 C5        -759.8460  -542.0604   739.4353 C5            1 RES     
   21015 C5        -761.0827  -542.5912   738.7082 C5            1 RES     
   21016 C5        -762.3471  -541.6961   738.6797 C5            1 RES     
   21017 C5        -763.1691  -541.4772   740.0082 C5            1 RES     
   21018 C5        -763.9029  -542.8158   740.2985 C5            1 RES     
   21019 C5        -764.8819  -543.1296   741.4361 C5            1 RES     
   21020 C5        -765.3149  -544.6118   741.1857 C5            1 RES     
   21021 C5        -766.3068  -545.2453   742.1597 C5            1 RES     
   21022 C5        -767.7151  -544.6779   742.0329 C5            1 RES     
   21023 C5        -762.2503  -540.5836   737.6257 C5            1 RES     
   21024 C0        -763.5719  -540.4346   736.7658 C0            1 RES     
   21025 C5        -763.6424  -538.9545   736.1902 C5            1 RES     
   21026 C5        -764.9336  -538.1124   736.4810 C5            1 RES     
   21027 C5        -766.0816  -538.3216   735.4515 C5            1 RES     
   21028 C5        -765.8894  -537.6021   734.0954 C5            1 RES     
   21029 C5        -766.8900  -538.0548   733.0139 C5            1 RES     
   21030 C5        -768.3444  -537.6103   733.2348 C5            1 RES     
   21031 C5        -768.5622  -536.0849   733.2091 C5            1 RES     
   21032 C5        -768.1323  -535.4360   731.8896 C5            1 RES     
   21033 C5        -764.6373  -536.5872   736.7570 C5            1 RES     
   21034 C5        -763.6589  -535.8673   735.7883 C5            1 RES     
   21035 C5        -763.5916  -534.3338   735.9666 C5            1 RES     
   21036 C5        -763.0929  -533.8548   737.3444 C5            1 RES     
   21037 C5        -762.9879  -532.3132   737.4467 C5            1 RES     
   21038 C5        -761.8973  -531.7058   736.5370 C5            1 RES     
   21039 C5        -761.7933  -530.1710   736.6226 C5            1 RES     
   21040 C5        -761.3596  -529.6548   737.9945 C5            1 RES     
   21041 H6        -754.8247  -546.2014   739.0351 H6            1 RES     
   21042 H6        -754.3388  -547.8562   738.5402 H6            1 RES     
   21043 H6        -755.4298  -547.6374   739.9596 H6            1 RES     
   21044 H6        -756.1144  -546.9879   737.0103 H6            1 RES     
   21045 H6        -756.6482  -548.4355   737.9352 H6            1 RES     
   21046 H6        -758.4622  -546.8282   737.8584 H6            1 RES     
   21047 H6        -757.8860  -546.9941   739.5560 H6            1 RES     
   21048 H6        -757.1875  -544.7248   737.5738 H6            1 RES     
   21049 H6        -756.5920  -544.8066   739.2786 H6            1 RES     
   21050 H6        -759.5316  -544.7202   738.4323 H6            1 RES     
   21051 H6        -758.9289  -544.6931   740.1371 H6            1 RES     
   21052 H6        -757.7177  -542.4992   739.6209 H6            1 RES     
   21053 H6        -758.3635  -542.5915   737.9466 H6            1 RES     
   21054 H6        -760.0158  -542.1276   740.5313 H6            1 RES     
   21055 H6        -759.6706  -540.9957   739.1691 H6            1 RES     
   21056 H6        -761.3282  -543.5827   739.1323 H6            1 RES     
   21057 H6        -760.8036  -542.7749   737.6456 H6            1 RES     
   21058 H6        -763.0031  -542.2842   738.1480 H6            1 RES     
   21059 H6        -762.5076  -541.1478   740.8369 H6            1 RES     
   21060 H6        -763.9530  -540.7051   739.8447 H6            1 RES     
   21061 H6        -764.5587  -542.9483   739.4175 H6            1 RES     
   21062 H6        -763.1115  -543.5810   740.3690 H6            1 RES     
   21063 H6        -765.7575  -542.4464   741.3914 H6            1 RES     
   21064 H6        -764.3821  -543.0359   742.4224 H6            1 RES     
   21065 H6        -765.7408  -544.7200   740.1600 H6            1 RES     
   21066 H6        -764.3991  -545.2414   741.2280 H6            1 RES     
   21067 H6        -765.9308  -545.1607   743.1995 H6            1 RES     
   21068 H6        -766.3723  -546.3274   741.9008 H6            1 RES     
   21069 H6        -768.0882  -544.8077   740.9926 H6            1 RES     
   21070 H6        -767.7348  -543.6047   742.3039 H6            1 RES     
   21071 H6        -768.3917  -545.2393   742.7123 H6            1 RES     
   21072 H6        -761.4543  -540.7884   736.8775 H6            1 RES     
   21073 H6        -761.9466  -539.6692   738.1795 H6            1 RES     
   21074 H6        -762.8806  -538.3954   736.7659 H6            1 RES     
   21075 H6        -763.2665  -538.8615   735.1520 H6            1 RES     
   21076 H6        -765.3334  -538.4926   737.4482 H6            1 RES     
   21077 H6        -766.2024  -539.4159   735.3097 H6            1 RES     
   21078 H6        -767.0300  -537.9413   735.8890 H6            1 RES     
   21079 H6        -765.9591  -536.5046   734.2184 H6            1 RES     
   21080 H6        -764.8729  -537.8123   733.7130 H6            1 RES     
   21081 H6        -766.5453  -537.6719   732.0319 H6            1 RES     
   21082 H6        -766.8756  -539.1613   732.9371 H6            1 RES     
   21083 H6        -768.7168  -538.0183   734.1977 H6            1 RES     
   21084 H6        -768.9588  -538.0572   732.4229 H6            1 RES     
   21085 H6        -768.0273  -535.5975   734.0500 H6            1 RES     
   21086 H6        -769.6484  -535.8972   733.3469 H6            1 RES     
   21087 H6        -768.6595  -535.9093   731.0337 H6            1 RES     
   21088 H6        -768.3826  -534.3551   731.9081 H6            1 RES     
   21089 H6        -767.0364  -535.5207   731.7380 H6            1 RES     
   21090 H6        -764.1712  -536.5083   737.7629 H6            1 RES     
   21091 H6        -765.6080  -536.0475   736.8069 H6            1 RES     
   21092 H6        -763.9445  -536.0205   734.7391 H6            1 RES     
   21093 H6        -762.6380  -536.2904   735.9012 H6            1 RES     
   21094 H6        -762.8996  -533.9656   735.1833 H6            1 RES     
   21095 H6        -764.5962  -533.8977   735.7710 H6            1 RES     
   21096 H6        -762.0997  -534.3007   737.5694 H6            1 RES     
   21097 H6        -763.8139  -534.1948   738.1153 H6            1 RES     
   21098 H6        -763.9739  -531.8555   737.2120 H6            1 RES     
   21099 H6        -762.7385  -532.0701   738.5027 H6            1 RES     
   21100 H6        -762.1278  -531.9411   735.4791 H6            1 RES     
   21101 H6        -760.9107  -532.1531   736.7879 H6            1 RES     
   21102 H6        -761.0311  -529.8390   735.8832 H6            1 RES     
   21103 H6        -762.7651  -529.7101   736.3435 H6            1 RES     
   21104 H6        -762.1125  -529.8963   738.7712 H6            1 RES     
   21105 H6        -761.2553  -528.5492   737.9533 H6            1 RES     
   21106 H6        -760.3780  -530.0900   738.2785 H6            1 RES     
   21107 C0        -760.5004  -550.9871   743.9498 C0            1 RES     
   21108 C0        -760.2278  -552.5231   743.6863 C0            1 RES     
   21109 C0        -759.9529  -552.7489   742.3798 C0            1 RES     
   21110 S1        -759.6113  -554.3518   742.0179 S1            1 RES     
   21111 C0        -759.8038  -554.8618   743.6273 C0            1 RES     
   21112 C0        -760.2170  -553.7585   744.3879 C0            1 RES     
   21113 C0        -760.1097  -551.5478   741.6470 C0            1 RES     
   21114 C0        -760.4311  -550.5791   742.4741 C0            1 RES     
   21115 C0        -760.8033  -549.3929   741.7553 C0            1 RES     
   21116 C0        -760.7413  -549.5854   740.3871 C0            1 RES     
   21117 S1        -760.1457  -551.2128   739.8955 S1            1 RES     
   21118 H2        -760.4485  -553.8738   745.4150 H2            1 RES     
   21119 H2        -761.2082  -548.5386   742.2098 H2            1 RES     
   21120 N3        -759.0630  -557.6463   746.1052 N3            1 RES     
   21121 C0        -759.4287  -556.4439   745.5786 C0            1 RES     
   21122 C0        -759.4868  -556.2278   744.1760 C0            1 RES     
   21123 C0        -759.1579  -557.3323   743.3608 C0            1 RES     
   21124 N3        -759.1630  -557.3188   742.0024 N3            1 RES     
   21125 S1        -758.7043  -558.8595   741.6258 S1            1 RES     
   21126 N3        -758.4798  -559.5785   743.0922 N3            1 RES     
   21127 C0        -758.7829  -558.5729   743.9552 C0            1 RES     
   21128 C0        -758.7369  -558.7105   745.3315 C0            1 RES     
   21129 H4        -759.6395  -555.6559   746.2715 H4            1 RES     
   21130 C5        -752.6141  -558.5805   744.0835 C5            1 RES     
   21131 C5        -753.9431  -558.2523   743.4034 C5            1 RES     
   21132 C5        -754.8962  -557.4421   744.2986 C5            1 RES     
   21133 C5        -754.3776  -556.0290   744.6225 C5            1 RES     
   21134 C5        -755.3904  -555.2574   745.4822 C5            1 RES     
   21135 C5        -754.9514  -553.7910   745.6890 C5            1 RES     
   21136 C5        -755.9452  -552.9190   746.5017 C5            1 RES     
   21137 C5        -757.3602  -553.0369   745.9330 C5            1 RES     
   21138 C5        -758.3942  -551.9535   746.3305 C5            1 RES     
   21139 C5        -758.9449  -551.9160   747.8082 C5            1 RES     
   21140 C5        -759.8968  -553.1354   747.9552 C5            1 RES     
   21141 C5        -760.7411  -553.5341   749.1714 C5            1 RES     
   21142 C5        -761.5131  -554.8150   748.7124 C5            1 RES     
   21143 C5        -762.4623  -555.4779   749.7090 C5            1 RES     
   21144 C5        -763.7199  -554.6591   749.9729 C5            1 RES     
   21145 C5        -758.2187  -550.6571   745.5264 C5            1 RES     
   21146 C0        -759.5900  -550.0790   744.9847 C0            1 RES     
   21147 C5        -759.4269  -548.5158   744.7469 C5            1 RES     
   21148 C5        -760.4508  -547.5542   745.4451 C5            1 RES     
   21149 C5        -761.7561  -547.3085   744.6345 C5            1 RES     
   21150 C5        -761.6171  -546.3325   743.4421 C5            1 RES     
   21151 C5        -762.8398  -546.3329   742.5036 C5            1 RES     
   21152 C5        -764.1166  -545.7060   743.0853 C5            1 RES     
   21153 C5        -764.0048  -544.2044   743.4128 C5            1 RES     
   21154 C5        -763.6459  -543.3462   742.1956 C5            1 RES     
   21155 C5        -759.7979  -546.2144   745.9638 C5            1 RES     
   21156 C5        -758.8424  -545.4677   744.9925 C5            1 RES     
   21157 C5        -758.4234  -544.0567   745.4628 C5            1 RES     
   21158 C5        -757.6359  -544.0137   746.7875 C5            1 RES     
   21159 C5        -757.1900  -542.5834   747.1793 C5            1 RES     
   21160 C5        -756.1413  -541.9780   746.2203 C5            1 RES     
   21161 C5        -755.7003  -540.5501   746.5949 C5            1 RES     
   21162 C5        -754.9685  -540.4586   747.9339 C5            1 RES     
   21163 H6        -752.0403  -557.6598   744.3112 H6            1 RES     
   21164 H6        -751.9978  -559.2084   743.4060 H6            1 RES     
   21165 H6        -752.7950  -559.1454   745.0226 H6            1 RES     
   21166 H6        -753.7528  -557.7044   742.4546 H6            1 RES     
   21167 H6        -754.4410  -559.2138   743.1504 H6            1 RES     
   21168 H6        -755.8607  -557.3422   743.7519 H6            1 RES     
   21169 H6        -755.0890  -558.0049   745.2374 H6            1 RES     
   21170 H6        -754.2222  -555.4881   743.6621 H6            1 RES     
   21171 H6        -753.4129  -556.0755   745.1680 H6            1 RES     
   21172 H6        -756.3581  -555.2772   744.9371 H6            1 RES     
   21173 H6        -755.5185  -555.7618   746.4638 H6            1 RES     
   21174 H6        -753.9564  -553.7550   746.1822 H6            1 RES     
   21175 H6        -754.8470  -553.3324   744.6799 H6            1 RES     
   21176 H6        -755.9616  -553.2139   747.5729 H6            1 RES     
   21177 H6        -755.5876  -551.8692   746.4293 H6            1 RES     
   21178 H6        -757.7466  -554.0420   746.1854 H6            1 RES     
   21179 H6        -757.2869  -553.0089   744.8218 H6            1 RES     
   21180 H6        -759.2319  -552.2742   745.8262 H6            1 RES     
   21181 H6        -758.1133  -551.9140   748.5438 H6            1 RES     
   21182 H6        -759.5610  -551.0021   747.9587 H6            1 RES     
   21183 H6        -760.6885  -552.9379   747.2082 H6            1 RES     
   21184 H6        -759.2856  -554.0218   747.7153 H6            1 RES     
   21185 H6        -761.4473  -552.7174   749.4356 H6            1 RES     
   21186 H6        -760.0928  -553.7663   750.0415 H6            1 RES     
   21187 H6        -762.0989  -554.6001   747.7874 H6            1 RES     
   21188 H6        -760.7569  -555.5869   748.4491 H6            1 RES     
   21189 H6        -761.9276  -555.7100   750.6522 H6            1 RES     
   21190 H6        -762.7952  -556.4389   749.2526 H6            1 RES     
   21191 H6        -764.2615  -554.4706   749.0193 H6            1 RES     
   21192 H6        -763.4694  -553.6946   750.4553 H6            1 RES     
   21193 H6        -764.3928  -555.2384   750.6407 H6            1 RES     
   21194 H6        -757.6042  -550.8145   744.6135 H6            1 RES     
   21195 H6        -757.6481  -549.9681   746.1859 H6            1 RES     
   21196 H6        -758.4867  -548.2518   745.2672 H6            1 RES     
   21197 H6        -759.1973  -548.2462   743.6969 H6            1 RES     
   21198 H6        -760.7752  -548.0772   746.3731 H6            1 RES     
   21199 H6        -762.1275  -548.2992   744.2989 H6            1 RES     
   21200 H6        -762.5261  -546.8830   745.3139 H6            1 RES     
   21201 H6        -761.4317  -545.3009   743.7969 H6            1 RES     
   21202 H6        -760.7369  -546.6205   742.8371 H6            1 RES     
   21203 H6        -762.5702  -545.7942   741.5726 H6            1 RES     
   21204 H6        -763.0737  -547.3745   742.2020 H6            1 RES     
   21205 H6        -764.4213  -546.2594   743.9982 H6            1 RES     
   21206 H6        -764.9254  -545.8326   742.3327 H6            1 RES     
   21207 H6        -763.2599  -544.0320   744.2167 H6            1 RES     
   21208 H6        -764.9933  -543.8675   743.7918 H6            1 RES     
   21209 H6        -764.3825  -543.5027   741.3787 H6            1 RES     
   21210 H6        -763.6539  -542.2740   742.4814 H6            1 RES     
   21211 H6        -762.6281  -543.5830   741.8225 H6            1 RES     
   21212 H6        -759.1824  -546.4595   746.8561 H6            1 RES     
   21213 H6        -760.6126  -545.5406   746.3078 H6            1 RES     
   21214 H6        -759.3059  -545.3148   744.0088 H6            1 RES     
   21215 H6        -757.9303  -546.0776   744.8189 H6            1 RES     
   21216 H6        -757.7921  -543.6400   744.6530 H6            1 RES     
   21217 H6        -759.3291  -543.4176   745.5567 H6            1 RES     
   21218 H6        -756.7389  -544.6670   746.7221 H6            1 RES     
   21219 H6        -758.2909  -544.3954   747.5968 H6            1 RES     
   21220 H6        -758.0790  -541.9177   747.2363 H6            1 RES     
   21221 H6        -756.7412  -542.6457   748.1948 H6            1 RES     
   21222 H6        -756.5705  -541.9111   745.2009 H6            1 RES     
   21223 H6        -755.2471  -542.6377   746.1808 H6            1 RES     
   21224 H6        -755.0026  -540.1906   745.8063 H6            1 RES     
   21225 H6        -756.5815  -539.8731   746.6072 H6            1 RES     
   21226 H6        -755.6325  -540.7421   748.7749 H6            1 RES     
   21227 H6        -754.6377  -539.4107   748.0993 H6            1 RES     
   21228 H6        -754.0717  -541.1138   747.9296 H6            1 RES     
   21229 C0        -757.8180  -562.4060   749.1448 C0            1 RES     
   21230 C0        -757.9218  -563.8587   748.5269 C0            1 RES     
   21231 C0        -757.8976  -563.8122   747.1738 C0            1 RES     
   21232 S1        -757.9638  -565.3175   746.4346 S1            1 RES     
   21233 C0        -758.0209  -566.1535   747.9129 C0            1 RES     
   21234 C0        -758.0718  -565.2076   748.9469 C0            1 RES     
   21235 C0        -757.9007  -562.4631   746.7448 C0            1 RES     
   21236 C0        -757.8818  -561.6777   747.7977 C0            1 RES     
   21237 C0        -758.0939  -560.3084   747.4205 C0            1 RES     
   21238 C0        -758.2773  -560.1782   746.0558 C0            1 RES     
   21239 S1        -758.1224  -561.7206   745.1383 S1            1 RES     
   21240 H2        -758.1684  -565.5212   749.9540 H2            1 RES     
   21241 H2        -758.2352  -559.5292   748.1084 H2            1 RES     
   21242 N3        -757.5346  -569.5323   749.5830 N3            1 RES     
   21243 C0        -757.7086  -568.1943   749.3923 C0            1 RES     
   21244 C0        -757.9256  -567.6445   748.1008 C0            1 RES     
   21245 C0        -757.9646  -568.5637   747.0302 C0            1 RES     
   21246 N3        -758.1671  -568.2272   745.7298 N3            1 RES     
   21247 S1        -758.1090  -569.6902   744.9666 S1            1 RES     
   21248 N3        -757.8294  -570.7648   746.1850 N3            1 RES     
   21249 C0        -757.7797  -569.9559   747.2764 C0            1 RES     
   21250 C0        -757.5614  -570.4224   748.5609 C0            1 RES     
   21251 H4        -757.6414  -567.5691   750.2583 H4            1 RES     
   21252 C5        -751.8053  -571.0739   746.2143 C5            1 RES     
   21253 C5        -753.1191  -570.3660   745.8832 C5            1 RES     
   21254 C5        -753.7340  -569.6377   747.0904 C5            1 RES     
   21255 C5        -752.8834  -568.4553   747.5895 C5            1 RES     
   21256 C5        -753.5696  -567.7449   748.7663 C5            1 RES     
   21257 C5        -752.8017  -566.4698   749.1790 C5            1 RES     
   21258 C5        -753.4550  -565.6557   750.3275 C5            1 RES     
   21259 C5        -754.9307  -565.3855   750.0290 C5            1 RES     
   21260 C5        -755.6389  -564.2637   750.8295 C5            1 RES     
   21261 C5        -755.9445  -564.4825   752.3616 C5            1 RES     
   21262 C5        -757.1026  -565.5158   752.4372 C5            1 RES     
   21263 C5        -757.8235  -566.0378   753.6857 C5            1 RES     
   21264 C5        -758.9104  -567.0174   753.1324 C5            1 RES     
   21265 C5        -759.8216  -567.7213   754.1365 C5            1 RES     
   21266 C5        -760.8220  -566.7815   754.7978 C5            1 RES     
   21267 C5        -755.3112  -562.8648   750.2877 C5            1 RES     
   21268 C0        -756.5919  -561.9436   750.1484 C0            1 RES     
   21269 C5        -756.1354  -560.4221   750.2070 C5            1 RES     
   21270 C5        -756.8156  -559.4899   751.2696 C5            1 RES     
   21271 C5        -758.1433  -558.8340   750.7918 C5            1 RES     
   21272 C5        -757.9766  -557.6425   749.8189 C5            1 RES     
   21273 C5        -759.2960  -557.2059   749.1525 C5            1 RES     
   21274 C5        -760.3091  -556.5215   750.0835 C5            1 RES     
   21275 C5        -759.8319  -555.1841   750.6822 C5            1 RES     
   21276 C5        -759.4817  -554.1379   749.6193 C5            1 RES     
   21277 C5        -755.8222  -558.4472   751.9149 C5            1 RES     
   21278 C5        -754.8834  -557.6705   750.9510 C5            1 RES     
   21279 C5        -754.1077  -556.5074   751.6094 C5            1 RES     
   21280 C5        -753.1424  -556.9188   752.7388 C5            1 RES     
   21281 C5        -752.3483  -555.7234   753.3205 C5            1 RES     
   21282 C5        -751.3479  -555.1007   752.3218 C5            1 RES     
   21283 C5        -750.5615  -553.9027   752.8874 C5            1 RES     
   21284 C5        -749.6376  -554.2615   754.0512 C5            1 RES     
   21285 H6        -751.0208  -570.3487   746.5102 H6            1 RES     
   21286 H6        -751.4445  -571.6208   745.3179 H6            1 RES     
   21287 H6        -751.9620  -571.8051   747.0357 H6            1 RES     
   21288 H6        -752.9583  -569.6505   745.0473 H6            1 RES     
   21289 H6        -753.8427  -571.1375   745.5402 H6            1 RES     
   21290 H6        -754.7248  -569.2435   746.7710 H6            1 RES     
   21291 H6        -753.9018  -570.3646   747.9142 H6            1 RES     
   21292 H6        -752.7597  -567.7375   746.7477 H6            1 RES     
   21293 H6        -751.8812  -568.7982   747.9187 H6            1 RES     
   21294 H6        -754.5888  -567.4649   748.4246 H6            1 RES     
   21295 H6        -753.6562  -568.4375   749.6306 H6            1 RES     
   21296 H6        -751.7603  -566.7269   749.4690 H6            1 RES     
   21297 H6        -752.7519  -565.8102   748.2836 H6            1 RES     
   21298 H6        -753.3757  -566.1890   751.2991 H6            1 RES     
   21299 H6        -752.8961  -564.6981   750.4030 H6            1 RES     
   21300 H6        -755.4813  -566.3381   750.1410 H6            1 RES     
   21301 H6        -755.0181  -565.1076   748.9539 H6            1 RES     
   21302 H6        -756.5909  -564.3036   750.4409 H6            1 RES     
   21303 H6        -755.0324  -564.8009   752.9087 H6            1 RES     
   21304 H6        -756.3219  -563.5372   752.8103 H6            1 RES     
   21305 H6        -757.9352  -565.0110   751.9122 H6            1 RES     
   21306 H6        -756.7373  -566.4127   751.9092 H6            1 RES     
   21307 H6        -758.2918  -565.1966   754.2410 H6            1 RES     
   21308 H6        -757.1185  -566.5799   754.3494 H6            1 RES     
   21309 H6        -759.5668  -566.4897   752.4005 H6            1 RES     
   21310 H6        -758.3841  -567.8249   752.5775 H6            1 RES     
   21311 H6        -759.2155  -568.2607   754.8923 H6            1 RES     
   21312 H6        -760.4158  -568.4728   753.5666 H6            1 RES     
   21313 H6        -761.4456  -566.2800   754.0245 H6            1 RES     
   21314 H6        -760.3028  -566.0183   755.4092 H6            1 RES     
   21315 H6        -761.4970  -567.3758   755.4502 H6            1 RES     
   21316 H6        -754.8863  -562.9059   749.2614 H6            1 RES     
   21317 H6        -754.5156  -562.4630   750.9517 H6            1 RES     
   21318 H6        -755.0942  -560.4581   750.5798 H6            1 RES     
   21319 H6        -756.0112  -559.9553   749.2098 H6            1 RES     
   21320 H6        -757.1036  -560.1532   752.1163 H6            1 RES     
   21321 H6        -758.7633  -559.6358   750.3392 H6            1 RES     
   21322 H6        -758.6956  -558.4540   751.6784 H6            1 RES     
   21323 H6        -757.5247  -556.7736   750.3340 H6            1 RES     
   21324 H6        -757.2775  -557.9282   749.0106 H6            1 RES     
   21325 H6        -759.0581  -556.5172   748.3165 H6            1 RES     
   21326 H6        -759.7891  -558.0884   748.6958 H6            1 RES     
   21327 H6        -760.5868  -557.2138   750.9058 H6            1 RES     
   21328 H6        -761.2284  -556.3221   749.4904 H6            1 RES     
   21329 H6        -758.9570  -555.3409   751.3461 H6            1 RES     
   21330 H6        -760.6585  -554.7792   751.3042 H6            1 RES     
   21331 H6        -760.3471  -553.9644   748.9445 H6            1 RES     
   21332 H6        -759.2181  -553.1799   750.1135 H6            1 RES     
   21333 H6        -758.6045  -554.4537   749.0176 H6            1 RES     
   21334 H6        -755.1484  -559.0012   752.6036 H6            1 RES     
   21335 H6        -756.4141  -557.7426   752.5387 H6            1 RES     
   21336 H6        -755.4436  -557.2095   750.1266 H6            1 RES     
   21337 H6        -754.1585  -558.3716   750.4852 H6            1 RES     
   21338 H6        -753.5287  -556.0273   750.7956 H6            1 RES     
   21339 H6        -754.8320  -555.7604   752.0034 H6            1 RES     
   21340 H6        -752.4255  -557.6846   752.3709 H6            1 RES     
   21341 H6        -753.7370  -557.3611   753.5638 H6            1 RES     
   21342 H6        -753.0561  -554.9452   753.6814 H6            1 RES     
   21343 H6        -751.7782  -556.1027   754.1967 H6            1 RES     
   21344 H6        -751.8986  -554.7196   751.4391 H6            1 RES     
   21345 H6        -750.6313  -555.8783   751.9780 H6            1 RES     
   21346 H6        -749.9275  -553.4941   752.0696 H6            1 RES     
   21347 H6        -751.2660  -553.1045   753.2061 H6            1 RES     
   21348 H6        -750.2151  -554.6159   754.9283 H6            1 RES     
   21349 H6        -749.0698  -553.3575   754.3598 H6            1 RES     
   21350 H6        -748.9122  -555.0435   753.7417 H6            1 RES     
   21351 C0        -756.9005  -575.0201   751.2935 C0            1 RES     
   21352 C0        -757.4025  -576.2431   750.4245 C0            1 RES     
   21353 C0        -757.5691  -575.8815   749.1303 C0            1 RES     
   21354 S1        -758.0638  -577.1326   748.1269 S1            1 RES     
   21355 C0        -758.0793  -578.2725   749.3870 C0            1 RES     
   21356 C0        -757.7736  -577.6055   750.5820 C0            1 RES     
   21357 C0        -757.3470  -574.4900   748.9936 C0            1 RES     
   21358 C0        -757.0055  -573.9930   750.1607 C0            1 RES     
   21359 C0        -756.9735  -572.5580   750.1179 C0            1 RES     
   21360 C0        -757.3242  -572.0773   748.8694 C0            1 RES     
   21361 S1        -757.6398  -573.3602   747.6449 S1            1 RES     
   21362 H2        -757.7851  -578.1275   751.5036 H2            1 RES     
   21363 H2        -756.8417  -571.9522   750.9640 H2            1 RES     
   21364 N3        -758.0851  -581.9827   750.2094 N3            1 RES     
   21365 C0        -757.9953  -580.6286   750.3320 C0            1 RES     
   21366 C0        -758.2782  -579.7584   749.2456 C0            1 RES     
   21367 C0        -758.6703  -580.3756   748.0382 C0            1 RES     
   21368 N3        -758.9861  -579.7097   746.8970 N3            1 RES     
   21369 S1        -759.3554  -580.9363   745.8554 S1            1 RES     
   21370 N3        -759.1349  -582.3015   746.7528 N3            1 RES     
   21371 C0        -758.7529  -581.7966   747.9557 C0            1 RES     
   21372 C0        -758.4521  -582.5857   749.0521 C0            1 RES     
   21373 H4        -757.6689  -580.2486   751.2779 H4            1 RES     
   21374 C5        -753.3795  -583.6586   745.5621 C5            1 RES     
   21375 C5        -754.5457  -582.6735   745.6404 C5            1 RES     
   21376 C5        -754.8057  -582.1568   747.0656 C5            1 RES     
   21377 C5        -753.6578  -581.2945   747.6223 C5            1 RES     
   21378 C5        -753.9948  -580.7752   749.0283 C5            1 RES     
   21379 C5        -752.9199  -579.7894   749.5367 C5            1 RES     
   21380 C5        -753.2071  -579.1700   750.9304 C5            1 RES     
   21381 C5        -754.6185  -578.5825   750.9820 C5            1 RES     
   21382 C5        -754.9444  -577.5768   752.1148 C5            1 RES     
   21383 C5        -755.0600  -578.0963   753.5998 C5            1 RES     
   21384 C5        -756.3879  -578.8988   753.6843 C5            1 RES     
   21385 C5        -757.0113  -579.5678   754.9150 C5            1 RES     
   21386 C5        -758.3519  -580.1820   754.3931 C5            1 RES     
   21387 C5        -759.2340  -580.9336   755.3886 C5            1 RES     
   21388 C5        -759.9015  -580.0175   756.4068 C5            1 RES     
   21389 C5        -754.4090  -576.1689   751.8164 C5            1 RES     
   21390 C0        -755.4695  -575.0314   752.1159 C0            1 RES     
   21391 C5        -754.6949  -573.6715   752.3942 C5            1 RES     
   21392 C5        -754.9955  -572.9141   753.7347 C5            1 RES     
   21393 C5        -756.2081  -571.9414   753.6643 C5            1 RES     
   21394 C5        -755.9362  -570.6012   752.9407 C5            1 RES     
   21395 C5        -757.2154  -569.7946   752.6429 C5            1 RES     
   21396 C5        -757.9100  -569.1845   753.8705 C5            1 RES     
   21397 C5        -757.0749  -568.1324   754.6258 C5            1 RES     
   21398 C5        -756.6701  -566.9416   753.7512 C5            1 RES     
   21399 C5        -753.7181  -572.2452   754.3759 C5            1 RES     
   21400 C5        -752.7879  -571.4384   753.4284 C5            1 RES     
   21401 C5        -751.6931  -570.6193   754.1484 C5            1 RES     
   21402 C5        -750.6820  -571.4498   754.9637 C5            1 RES     
   21403 C5        -749.5738  -570.5849   755.6131 C5            1 RES     
   21404 C5        -748.6222  -569.9278   754.5890 C5            1 RES     
   21405 C5        -747.5233  -569.0552   755.2250 C5            1 RES     
   21406 C5        -746.5358  -569.8363   756.0920 C5            1 RES     
   21407 H6        -752.4232  -583.1735   745.8433 H6            1 RES     
   21408 H6        -753.2803  -584.0314   744.5209 H6            1 RES     
   21409 H6        -753.5657  -584.5249   746.2319 H6            1 RES     
   21410 H6        -754.3611  -581.8195   744.9526 H6            1 RES     
   21411 H6        -755.4601  -583.2025   745.2929 H6            1 RES     
   21412 H6        -755.7253  -581.5308   747.0293 H6            1 RES     
   21413 H6        -755.0013  -583.0177   747.7408 H6            1 RES     
   21414 H6        -753.5093  -580.4305   746.9364 H6            1 RES     
   21415 H6        -752.7147  -581.8758   747.6762 H6            1 RES     
   21416 H6        -754.9697  -580.2480   748.9528 H6            1 RES     
   21417 H6        -754.0988  -581.6272   749.7337 H6            1 RES     
   21418 H6        -751.9263  -580.2862   749.5630 H6            1 RES     
   21419 H6        -752.8631  -578.9552   748.8017 H6            1 RES     
   21420 H6        -753.1010  -579.9242   751.7394 H6            1 RES     
   21421 H6        -752.4516  -578.3708   751.0905 H6            1 RES     
   21422 H6        -755.3372  -579.4229   751.0012 H6            1 RES     
   21423 H6        -754.8023  -578.0463   750.0231 H6            1 RES     
   21424 H6        -755.9296  -577.3559   751.9162 H6            1 RES     
   21425 H6        -754.1664  -578.6902   753.8852 H6            1 RES     
   21426 H6        -755.1562  -577.2336   754.2954 H6            1 RES     
   21427 H6        -757.1617  -578.1459   753.4427 H6            1 RES     
   21428 H6        -756.3048  -579.6943   752.9247 H6            1 RES     
   21429 H6        -757.2017  -578.8140   755.7093 H6            1 RES     
   21430 H6        -756.3483  -580.3669   755.3066 H6            1 RES     
   21431 H6        -758.9812  -579.3891   753.9237 H6            1 RES     
   21432 H6        -758.0982  -580.9139   753.5949 H6            1 RES     
   21433 H6        -758.6523  -581.7347   755.8881 H6            1 RES     
   21434 H6        -760.0525  -581.4122   754.8026 H6            1 RES     
   21435 H6        -760.5107  -579.2455   755.8861 H6            1 RES     
   21436 H6        -759.1467  -579.5246   757.0494 H6            1 RES     
   21437 H6        -760.5839  -580.6221   757.0417 H6            1 RES     
   21438 H6        -754.1591  -576.0387   750.7412 H6            1 RES     
   21439 H6        -753.4568  -576.0821   752.3830 H6            1 RES     
   21440 H6        -753.6421  -573.9767   752.5451 H6            1 RES     
   21441 H6        -754.6224  -573.0103   751.5080 H6            1 RES     
   21442 H6        -755.2903  -573.6986   754.4679 H6            1 RES     
   21443 H6        -757.0449  -572.4914   753.1855 H6            1 RES     
   21444 H6        -756.5292  -571.6923   754.6988 H6            1 RES     
   21445 H6        -755.2380  -569.9724   753.5254 H6            1 RES     
   21446 H6        -755.4415  -570.8044   751.9724 H6            1 RES     
   21447 H6        -756.9619  -568.9796   751.9349 H6            1 RES     
   21448 H6        -757.9476  -570.4430   752.1194 H6            1 RES     
   21449 H6        -758.2046  -569.9926   754.5723 H6            1 RES     
   21450 H6        -758.8426  -568.6920   753.5180 H6            1 RES     
   21451 H6        -756.1655  -568.5931   755.0635 H6            1 RES     
   21452 H6        -757.6947  -567.7486   755.4641 H6            1 RES     
   21453 H6        -757.5684  -566.4640   753.3047 H6            1 RES     
   21454 H6        -756.1379  -566.1898   754.3700 H6            1 RES     
   21455 H6        -755.9795  -567.2540   752.9409 H6            1 RES     
   21456 H6        -753.0841  -573.0561   754.7950 H6            1 RES     
   21457 H6        -754.0470  -571.6164   755.2317 H6            1 RES     
   21458 H6        -753.3521  -570.7041   752.8382 H6            1 RES     
   21459 H6        -752.3066  -572.1246   752.6993 H6            1 RES     
   21460 H6        -751.1516  -570.0688   753.3536 H6            1 RES     
   21461 H6        -752.1747  -569.8724   754.8176 H6            1 RES     
   21462 H6        -750.2077  -572.2196   754.3171 H6            1 RES     
   21463 H6        -751.2288  -571.9642   755.7799 H6            1 RES     
   21464 H6        -750.0377  -569.8031   756.2538 H6            1 RES     
   21465 H6        -748.9749  -571.2552   756.2677 H6            1 RES     
   21466 H6        -749.2029  -569.2575   753.9248 H6            1 RES     
   21467 H6        -748.1471  -570.7146   753.9632 H6            1 RES     
   21468 H6        -746.9444  -568.5816   754.4013 H6            1 RES     
   21469 H6        -747.9859  -568.2449   755.8286 H6            1 RES     
   21470 H6        -747.0397  -570.2821   756.9728 H6            1 RES     
   21471 H6        -745.7487  -569.1453   756.4633 H6            1 RES     
   21472 H6        -746.0482  -570.6370   755.4965 H6            1 RES     
   21473 C0        -758.3928  -587.7434   750.6131 C0            1 RES     
   21474 C0        -759.2673  -588.6177   749.6262 C0            1 RES     
   21475 C0        -759.5420  -587.9355   748.4891 C0            1 RES     
   21476 S1        -760.4353  -588.8059   747.3661 S1            1 RES     
   21477 C0        -760.5077  -590.1917   748.3469 C0            1 RES     
   21478 C0        -759.8935  -589.8918   749.5713 C0            1 RES     
   21479 C0        -759.0505  -586.6125   748.5985 C0            1 RES     
   21480 C0        -758.4420  -586.4747   749.7546 C0            1 RES     
   21481 C0        -758.1107  -585.0990   749.9995 C0            1 RES     
   21482 C0        -758.5311  -584.2817   748.9660 C0            1 RES     
   21483 S1        -759.2909  -585.1613   747.5898 S1            1 RES     
   21484 H2        -759.8800  -590.6074   750.3520 H2            1 RES     
   21485 H2        -757.7291  -584.7442   750.9099 H2            1 RES     
   21486 N3        -761.1848  -593.9310   748.3824 N3            1 RES     
   21487 C0        -760.7906  -592.6820   748.7585 C0            1 RES     
   21488 C0        -761.0382  -591.5431   747.9469 C0            1 RES     
   21489 C0        -761.7271  -591.7772   746.7372 C0            1 RES     
   21490 N3        -762.0583  -590.8146   745.8378 N3            1 RES     
   21491 S1        -762.8309  -591.6745   744.6590 S1            1 RES     
   21492 N3        -762.7772  -593.2306   745.2004 N3            1 RES     
   21493 C0        -762.1228  -593.1009   746.3847 C0            1 RES     
   21494 C0        -761.8390  -594.1680   747.2190 C0            1 RES     
   21495 H4        -760.2544  -592.6009   749.6813 H4            1 RES     
   21496 C5        -757.6852  -595.2523   742.6766 C5            1 RES     
   21497 C5        -758.5894  -594.1255   743.1760 C5            1 RES     
   21498 C5        -758.5195  -593.9248   744.6994 C5            1 RES     
   21499 C5        -757.1446  -593.4342   745.1891 C5            1 RES     
   21500 C5        -757.1513  -593.2130   746.7094 C5            1 RES     
   21501 C5        -755.8275  -592.5801   747.1919 C5            1 RES     
   21502 C5        -755.7667  -592.2690   748.7111 C5            1 RES     
   21503 C5        -756.9965  -591.4728   749.1510 C5            1 RES     
   21504 C5        -756.9290  -590.7239   750.5058 C5            1 RES     
   21505 C5        -756.9322  -591.5528   751.8480 C5            1 RES     
   21506 C5        -758.3736  -592.1071   752.0206 C5            1 RES     
   21507 C5        -758.9367  -592.9295   753.1856 C5            1 RES     
   21508 C5        -760.4397  -593.1576   752.8167 C5            1 RES     
   21509 C5        -761.3050  -593.9577   753.7888 C5            1 RES     
   21510 C5        -761.6035  -593.2075   755.0809 C5            1 RES     
   21511 C5        -756.1551  -589.4016   750.4032 C5            1 RES     
   21512 C0        -756.8918  -588.2002   751.1257 C0            1 RES     
   21513 C5        -755.8122  -587.1026   751.5211 C5            1 RES     
   21514 C5        -755.7426  -586.6448   753.0199 C5            1 RES     
   21515 C5        -756.7161  -585.4863   753.3829 C5            1 RES     
   21516 C5        -756.2740  -584.0815   752.9088 C5            1 RES     
   21517 C5        -757.3809  -583.0161   753.0326 C5            1 RES     
   21518 C5        -757.7399  -582.6031   754.4686 C5            1 RES     
   21519 C5        -756.5971  -581.9236   755.2477 C5            1 RES     
   21520 C5        -756.0810  -580.6489   754.5726 C5            1 RES     
   21521 C5        -754.2714  -586.3816   753.5265 C5            1 RES     
   21522 C5        -753.3407  -585.5485   752.6025 C5            1 RES     
   21523 C5        -752.0021  -585.1287   753.2504 C5            1 RES     
   21524 C5        -751.0827  -586.2929   753.6702 C5            1 RES     
   21525 C5        -749.7318  -585.8149   754.2570 C5            1 RES     
   21526 C5        -748.8238  -585.1104   753.2250 C5            1 RES     
   21527 C5        -747.4821  -584.6202   753.8023 C5            1 RES     
   21528 C5        -746.5675  -585.7454   754.2862 C5            1 RES     
   21529 H6        -756.6166  -595.0230   742.8618 H6            1 RES     
   21530 H6        -757.8229  -595.3785   741.5820 H6            1 RES     
   21531 H6        -757.9513  -596.2065   743.1791 H6            1 RES     
   21532 H6        -758.3302  -593.1784   742.6541 H6            1 RES     
   21533 H6        -759.6367  -594.3882   742.9102 H6            1 RES     
   21534 H6        -759.2791  -593.1570   744.9685 H6            1 RES     
   21535 H6        -758.7927  -594.8734   745.2100 H6            1 RES     
   21536 H6        -756.9177  -592.4716   744.6780 H6            1 RES     
   21537 H6        -756.3501  -594.1675   744.9415 H6            1 RES     
   21538 H6        -757.9912  -592.5206   746.9312 H6            1 RES     
   21539 H6        -757.3296  -594.1763   747.2332 H6            1 RES     
   21540 H6        -754.9704  -593.2350   746.9253 H6            1 RES     
   21541 H6        -755.7030  -591.6183   746.6451 H6            1 RES     
   21542 H6        -755.7059  -593.2004   749.3140 H6            1 RES     
   21543 H6        -754.8427  -591.6758   748.8825 H6            1 RES     
   21544 H6        -757.8673  -592.1545   749.1364 H6            1 RES     
   21545 H6        -757.2010  -590.7005   748.3748 H6            1 RES     
   21546 H6        -757.8625  -590.2932   750.5491 H6            1 RES     
   21547 H6        -756.1541  -592.3445   751.8297 H6            1 RES     
   21548 H6        -756.7380  -590.8769   752.7099 H6            1 RES     
   21549 H6        -758.9956  -591.1949   752.0904 H6            1 RES     
   21550 H6        -758.5756  -592.7013   751.1134 H6            1 RES     
   21551 H6        -758.8423  -592.3646   754.1382 H6            1 RES     
   21552 H6        -758.4094  -593.9021   753.2717 H6            1 RES     
   21553 H6        -760.9472  -592.1783   752.6482 H6            1 RES     
   21554 H6        -760.4690  -593.7117   751.8528 H6            1 RES     
   21555 H6        -760.8408  -594.9437   753.9937 H6            1 RES     
   21556 H6        -762.2843  -594.1325   753.2858 H6            1 RES     
   21557 H6        -762.1037  -592.2395   754.8550 H6            1 RES     
   21558 H6        -760.6744  -593.0213   755.6534 H6            1 RES     
   21559 H6        -762.2979  -593.8165   755.6984 H6            1 RES     
   21560 H6        -756.0448  -589.0656   749.3494 H6            1 RES     
   21561 H6        -755.1334  -589.6199   750.7821 H6            1 RES     
   21562 H6        -754.8384  -587.6145   751.4018 H6            1 RES     
   21563 H6        -755.7318  -586.2730   750.7909 H6            1 RES     
   21564 H6        -756.0866  -587.5169   753.6207 H6            1 RES     
   21565 H6        -757.7125  -585.7516   752.9718 H6            1 RES     
   21566 H6        -756.8202  -585.4378   754.4884 H6            1 RES     
   21567 H6        -755.3791  -583.7419   753.4642 H6            1 RES     
   21568 H6        -755.9828  -584.1323   751.8429 H6            1 RES     
   21569 H6        -757.0666  -582.1136   752.4700 H6            1 RES     
   21570 H6        -758.3039  -583.3831   752.5385 H6            1 RES     
   21571 H6        -758.0935  -583.4904   755.0345 H6            1 RES     
   21572 H6        -758.5874  -581.8856   754.4094 H6            1 RES     
   21573 H6        -755.7528  -582.6270   755.3996 H6            1 RES     
   21574 H6        -756.9898  -581.6475   756.2495 H6            1 RES     
   21575 H6        -756.9123  -579.9292   754.4135 H6            1 RES     
   21576 H6        -755.3149  -580.1708   755.2176 H6            1 RES     
   21577 H6        -755.6005  -580.8759   753.5986 H6            1 RES     
   21578 H6        -753.7706  -587.3670   753.6422 H6            1 RES     
   21579 H6        -754.3282  -585.9265   754.5393 H6            1 RES     
   21580 H6        -753.8158  -584.6079   752.2937 H6            1 RES     
   21581 H6        -753.1302  -586.1153   751.6706 H6            1 RES     
   21582 H6        -751.4789  -584.5087   752.4955 H6            1 RES     
   21583 H6        -752.2086  -584.4897   754.1374 H6            1 RES     
   21584 H6        -750.8847  -586.9579   752.8016 H6            1 RES     
   21585 H6        -751.6002  -586.8825   754.4540 H6            1 RES     
   21586 H6        -749.9181  -585.1389   755.1202 H6            1 RES     
   21587 H6        -749.2001  -586.7157   754.6342 H6            1 RES     
   21588 H6        -749.3394  -584.2105   752.8351 H6            1 RES     
   21589 H6        -748.6255  -585.7967   752.3728 H6            1 RES     
   21590 H6        -746.9436  -584.0733   752.9968 H6            1 RES     
   21591 H6        -747.6666  -583.9084   754.6355 H6            1 RES     
   21592 H6        -747.0192  -586.2923   755.1378 H6            1 RES     
   21593 H6        -745.6049  -585.3112   754.6323 H6            1 RES     
   21594 H6        -746.3556  -586.4543   753.4579 H6            1 RES     
   21595 C0        -762.6534  -599.4772   747.6565 C0            1 RES     
   21596 C0        -763.8304  -599.9249   746.6989 C0            1 RES     
   21597 C0        -764.1179  -598.9549   745.7988 C0            1 RES     
   21598 S1        -765.3324  -599.3634   744.7148 S1            1 RES     
   21599 C0        -765.5536  -600.9077   745.3883 C0            1 RES     
   21600 C0        -764.7155  -601.0195   746.5070 C0            1 RES     
   21601 C0        -763.3443  -597.8028   746.0788 C0            1 RES     
   21602 C0        -762.5566  -598.0523   747.1000 C0            1 RES     
   21603 C0        -761.9065  -596.8541   747.5515 C0            1 RES     
   21604 C0        -762.2904  -595.7541   746.8063 C0            1 RES     
   21605 S1        -763.4154  -596.1346   745.4519 S1            1 RES     
   21606 H2        -764.7401  -601.8912   747.1084 H2            1 RES     
   21607 H2        -761.3277  -596.7982   748.4245 H2            1 RES     
   21608 N3        -767.0012  -604.3704   744.7913 N3            1 RES     
   21609 C0        -766.2981  -603.3354   745.3309 C0            1 RES     
   21610 C0        -766.4137  -602.0110   744.8310 C0            1 RES     
   21611 C0        -767.3077  -601.8267   743.7542 C0            1 RES     
   21612 N3        -767.5547  -600.6353   743.1502 N3            1 RES     
   21613 S1        -768.6586  -601.0416   741.9916 S1            1 RES     
   21614 N3        -768.8593  -602.6665   742.1844 N3            1 RES     
   21615 C0        -768.0247  -602.9384   743.2223 C0            1 RES     
   21616 C0        -767.8555  -604.2059   743.7517 C0            1 RES     
   21617 H4        -765.6268  -603.5709   746.1305 H4            1 RES     
   21618 C5        -764.7470  -604.8902   738.3728 C5            1 RES     
   21619 C5        -765.3055  -603.7738   739.2551 C5            1 RES     
   21620 C5        -764.9701  -603.9563   740.7451 C5            1 RES     
   21621 C5        -763.4652  -603.8445   741.0513 C5            1 RES     
   21622 C5        -763.1999  -603.9932   742.5572 C5            1 RES     
   21623 C5        -761.7151  -603.7349   742.8952 C5            1 RES     
   21624 C5        -761.3655  -603.8092   744.4055 C5            1 RES     
   21625 C5        -762.3179  -602.9376   745.2258 C5            1 RES     
   21626 C5        -761.8925  -602.5557   746.6660 C5            1 RES     
   21627 C5        -761.8746  -603.6660   747.7865 C5            1 RES     
   21628 C5        -763.3594  -603.9842   748.1160 C5            1 RES     
   21629 C5        -763.9069  -604.9482   749.1752 C5            1 RES     
   21630 C5        -765.4615  -604.8153   749.0630 C5            1 RES     
   21631 C5        -766.3245  -605.6592   749.9995 C5            1 RES     
   21632 C5        -766.2616  -605.1970   751.4500 C5            1 RES     
   21633 C5        -760.8779  -601.4034   746.6881 C5            1 RES     
   21634 C0        -761.2258  -600.2982   747.7677 C0            1 RES     
   21635 C5        -759.8902  -599.5325   748.1635 C5            1 RES     
   21636 C5        -759.5039  -599.4632   749.6823 C5            1 RES     
   21637 C5        -760.1427  -598.2722   750.4534 C5            1 RES     
   21638 C5        -759.4856  -596.8947   750.1994 C5            1 RES     
   21639 C5        -760.3087  -595.7123   750.7474 C5            1 RES     
   21640 C5        -760.3550  -595.5960   752.2791 C5            1 RES     
   21641 C5        -758.9911  -595.3319   752.9461 C5            1 RES     
   21642 C5        -758.3200  -594.0441   752.4583 C5            1 RES     
   21643 C5        -757.9521  -599.5897   749.9400 C5            1 RES     
   21644 C5        -757.0118  -598.7373   749.0438 C5            1 RES     
   21645 C5        -755.5337  -598.7245   749.4944 C5            1 RES     
   21646 C5        -754.8328  -600.0975   749.4841 C5            1 RES     
   21647 C5        -753.3394  -600.0167   749.8856 C5            1 RES     
   21648 C5        -752.4644  -599.2575   748.8639 C5            1 RES     
   21649 C5        -750.9787  -599.1612   749.2605 C5            1 RES     
   21650 C5        -750.2645  -600.5113   749.3206 C5            1 RES     
   21651 H6        -763.6387  -604.9022   738.3922 H6            1 RES     
   21652 H6        -765.0685  -604.7266   737.3226 H6            1 RES     
   21653 H6        -765.1336  -605.8747   738.7121 H6            1 RES     
   21654 H6        -764.9299  -602.7904   738.8971 H6            1 RES     
   21655 H6        -766.4123  -603.7783   739.1474 H6            1 RES     
   21656 H6        -765.4999  -603.1535   741.3055 H6            1 RES     
   21657 H6        -765.3612  -604.9361   741.0946 H6            1 RES     
   21658 H6        -763.1160  -602.8432   740.7130 H6            1 RES     
   21659 H6        -762.8913  -604.6255   740.5119 H6            1 RES     
   21660 H6        -763.8302  -603.2373   743.0723 H6            1 RES     
   21661 H6        -763.5006  -605.0068   742.8982 H6            1 RES     
   21662 H6        -761.0667  -604.4474   742.3415 H6            1 RES     
   21663 H6        -761.4700  -602.7079   742.5421 H6            1 RES     
   21664 H6        -761.4167  -604.8530   744.7830 H6            1 RES     
   21665 H6        -760.3210  -603.4449   744.5134 H6            1 RES     
   21666 H6        -763.3066  -603.4330   745.2401 H6            1 RES     
   21667 H6        -762.4649  -601.9795   744.6770 H6            1 RES     
   21668 H6        -762.6956  -601.9910   746.9744 H6            1 RES     
   21669 H6        -761.2950  -604.5544   747.4585 H6            1 RES     
   21670 H6        -761.4153  -603.2589   748.7143 H6            1 RES     
   21671 H6        -763.7548  -603.0203   748.4880 H6            1 RES     
   21672 H6        -763.8154  -604.3010   747.1629 H6            1 RES     
   21673 H6        -763.5543  -604.6512   750.1866 H6            1 RES     
   21674 H6        -763.5929  -605.9902   748.9587 H6            1 RES     
   21675 H6        -765.7672  -603.7507   749.1979 H6            1 RES     
   21676 H6        -765.7506  -605.1106   748.0304 H6            1 RES     
   21677 H6        -766.0567  -606.7311   749.9065 H6            1 RES     
   21678 H6        -767.3818  -605.5352   749.6689 H6            1 RES     
   21679 H6        -766.5712  -604.1309   751.5261 H6            1 RES     
   21680 H6        -765.2400  -605.3178   751.8592 H6            1 RES     
   21681 H6        -766.9711  -605.8039   752.0521 H6            1 RES     
   21682 H6        -760.8551  -600.8514   745.7236 H6            1 RES     
   21683 H6        -759.8819  -601.8810   746.8114 H6            1 RES     
   21684 H6        -759.0769  -600.1637   747.7580 H6            1 RES     
   21685 H6        -759.7432  -598.5805   747.6159 H6            1 RES     
   21686 H6        -759.9337  -600.3790   750.1476 H6            1 RES     
   21687 H6        -761.2223  -598.2535   750.1960 H6            1 RES     
   21688 H6        -760.0696  -598.4702   751.5447 H6            1 RES     
   21689 H6        -758.4669  -596.8588   750.6300 H6            1 RES     
   21690 H6        -759.3727  -596.7410   749.1098 H6            1 RES     
   21691 H6        -759.8953  -594.7715   750.3307 H6            1 RES     
   21692 H6        -761.3513  -595.7839   750.3755 H6            1 RES     
   21693 H6        -760.8024  -596.5163   752.7096 H6            1 RES     
   21694 H6        -761.0287  -594.7479   752.5309 H6            1 RES     
   21695 H6        -758.3036  -596.1879   752.7868 H6            1 RES     
   21696 H6        -759.1633  -595.2373   754.0395 H6            1 RES     
   21697 H6        -758.9925  -593.1731   752.6116 H6            1 RES     
   21698 H6        -757.3828  -593.8746   753.0279 H6            1 RES     
   21699 H6        -758.0483  -594.1137   751.3848 H6            1 RES     
   21700 H6        -757.6619  -600.6464   749.7544 H6            1 RES     
   21701 H6        -757.7602  -599.3856   751.0158 H6            1 RES     
   21702 H6        -757.3152  -597.6820   749.0299 H6            1 RES     
   21703 H6        -757.0673  -599.0943   747.9934 H6            1 RES     
   21704 H6        -755.0075  -598.0444   748.7955 H6            1 RES     
   21705 H6        -755.4657  -598.2885   750.5157 H6            1 RES     
   21706 H6        -754.9119  -600.5613   748.4769 H6            1 RES     
   21707 H6        -755.3427  -600.7565   750.2159 H6            1 RES     
   21708 H6        -753.2473  -599.5433   750.8877 H6            1 RES     
   21709 H6        -752.9627  -601.0602   749.9623 H6            1 RES     
   21710 H6        -752.8275  -598.2148   748.7717 H6            1 RES     
   21711 H6        -752.5455  -599.7455   747.8680 H6            1 RES     
   21712 H6        -750.4608  -598.5416   748.4951 H6            1 RES     
   21713 H6        -750.8817  -598.6467   750.2407 H6            1 RES     
   21714 H6        -750.6918  -601.1572   750.1135 H6            1 RES     
   21715 H6        -749.1910  -600.3473   749.5565 H6            1 RES     
   21716 H6        -750.3338  -601.0290   748.3404 H6            1 RES     
   21717 C0        -769.7118  -609.2399   743.2474 C0            1 RES     
   21718 C0        -771.0856  -609.2341   742.4627 C0            1 RES     
   21719 C0        -771.2889  -608.0432   741.8511 C0            1 RES     
   21720 S1        -772.7091  -607.9633   740.9603 S1            1 RES     
   21721 C0        -773.1532  -609.5600   741.3350 C0            1 RES     
   21722 C0        -772.2026  -610.0794   742.2255 C0            1 RES     
   21723 C0        -770.2543  -607.1444   742.2059 C0            1 RES     
   21724 C0        -769.3961  -607.7633   742.9845 C0            1 RES     
   21725 C0        -768.4456  -606.8395   743.5371 C0            1 RES     
   21726 C0        -768.6913  -605.5443   743.1192 C0            1 RES     
   21727 S1        -770.0590  -605.3890   741.9572 S1            1 RES     
   21728 H2        -772.3238  -611.0508   742.6302 H2            1 RES     
   21729 H2        -767.7457  -607.0949   744.2756 H2            1 RES     
   21730 N3        -775.3793  -612.4732   740.3348 N3            1 RES     
   21731 C0        -774.3994  -611.7356   740.9287 C0            1 RES     
   21732 C0        -774.3019  -610.3312   740.7405 C0            1 RES     
   21733 C0        -775.2849  -609.7428   739.9157 C0            1 RES     
   21734 N3        -775.3580  -608.4177   739.6257 N3            1 RES     
   21735 S1        -776.6819  -608.3374   738.6425 S1            1 RES     
   21736 N3        -777.1946  -609.9005   738.5354 N3            1 RES     
   21737 C0        -776.2934  -610.5531   739.3163 C0            1 RES     
   21738 C0        -776.3226  -611.9195   739.5341 C0            1 RES     
   21739 H4        -773.6834  -612.2682   741.5196 H4            1 RES     
   21740 C5        -774.2615  -611.8399   733.6342 C5            1 RES     
   21741 C5        -774.4320  -610.8850   734.8157 C5            1 RES     
   21742 C5        -773.9270  -611.4720   736.1448 C5            1 RES     
   21743 C5        -772.4047  -611.7015   736.1727 C5            1 RES     
   21744 C5        -771.9578  -612.2477   737.5373 C5            1 RES     
   21745 C5        -770.4189  -612.3412   737.6295 C5            1 RES     
   21746 C5        -769.8741  -612.8323   738.9972 C5            1 RES     
   21747 C5        -770.4864  -612.0275   740.1450 C5            1 RES     
   21748 C5        -769.7813  -612.0793   741.5238 C5            1 RES     
   21749 C5        -769.8357  -613.4094   742.3702 C5            1 RES     
   21750 C5        -771.2890  -613.5317   742.9067 C5            1 RES     
   21751 C5        -771.8672  -614.6085   743.8324 C5            1 RES     
   21752 C5        -773.3566  -614.1827   744.0501 C5            1 RES     
   21753 C5        -774.2320  -615.0603   744.9430 C5            1 RES     
   21754 C5        -773.8582  -614.9743   746.4176 C5            1 RES     
   21755 C5        -768.5520  -611.1612   741.5849 C5            1 RES     
   21756 C0        -768.4923  -610.3008   742.9131 C0            1 RES     
   21757 C5        -766.9805  -609.8970   743.1927 C5            1 RES     
   21758 C5        -766.3683  -610.2593   744.5908 C5            1 RES     
   21759 C5        -766.6168  -609.1926   745.6961 C5            1 RES     
   21760 C5        -765.7254  -607.9312   745.6065 C5            1 RES     
   21761 C5        -766.1865  -606.7876   746.5312 C5            1 RES     
   21762 C5        -765.9802  -607.0322   748.0343 C5            1 RES     
   21763 C5        -764.5082  -607.1771   748.4667 C5            1 RES     
   21764 C5        -763.6569  -605.9483   748.1318 C5            1 RES     
   21765 C5        -764.8588  -610.7131   744.5146 C5            1 RES     
   21766 C5        -763.9009  -609.8504   743.6473 C5            1 RES     
   21767 C5        -762.4043  -610.2040   743.7989 C5            1 RES     
   21768 C5        -762.0224  -611.6362   743.3750 C5            1 RES     
   21769 C5        -760.5037  -611.9159   743.4904 C5            1 RES     
   21770 C5        -759.6474  -611.1010   742.4961 C5            1 RES     
   21771 C5        -758.1336  -611.3633   742.6114 C5            1 RES     
   21772 C5        -757.7235  -612.7927   742.2572 C5            1 RES     
   21773 H6        -773.1910  -612.0500   733.4378 H6            1 RES     
   21774 H6        -774.6922  -611.3778   732.7210 H6            1 RES     
   21775 H6        -774.7952  -612.7934   733.8338 H6            1 RES     
   21776 H6        -773.9120  -609.9261   734.6001 H6            1 RES     
   21777 H6        -775.5177  -610.6699   734.9238 H6            1 RES     
   21778 H6        -774.1843  -610.7454   736.9478 H6            1 RES     
   21779 H6        -774.4625  -612.4228   736.3560 H6            1 RES     
   21780 H6        -771.9035  -610.7256   735.9847 H6            1 RES     
   21781 H6        -772.0971  -612.4201   735.3857 H6            1 RES     
   21782 H6        -772.3289  -611.5375   738.3067 H6            1 RES     
   21783 H6        -772.4144  -613.2446   737.7161 H6            1 RES     
   21784 H6        -770.0268  -613.0040   736.8285 H6            1 RES     
   21785 H6        -770.0149  -611.3190   737.4525 H6            1 RES     
   21786 H6        -770.0909  -613.9103   739.1571 H6            1 RES     
   21787 H6        -768.7717  -612.6927   738.9746 H6            1 RES     
   21788 H6        -771.5449  -612.3311   740.2476 H6            1 RES     
   21789 H6        -770.5047  -610.9560   739.8414 H6            1 RES     
   21790 H6        -770.3905  -611.4724   742.0889 H6            1 RES     
   21791 H6        -769.5144  -614.2818   741.7632 H6            1 RES     
   21792 H6        -769.1682  -613.3213   743.2557 H6            1 RES     
   21793 H6        -771.4098  -612.6299   743.5359 H6            1 RES     
   21794 H6        -771.9378  -613.5282   742.0146 H6            1 RES     
   21795 H6        -771.3138  -614.6268   744.7962 H6            1 RES     
   21796 H6        -771.8186  -615.6077   743.3523 H6            1 RES     
   21797 H6        -773.4044  -613.1440   744.4549 H6            1 RES     
   21798 H6        -773.8514  -614.1689   743.0541 H6            1 RES     
   21799 H6        -774.2161  -616.1093   744.5841 H6            1 RES     
   21800 H6        -775.2753  -614.6782   744.8538 H6            1 RES     
   21801 H6        -773.9181  -613.9195   746.7671 H6            1 RES     
   21802 H6        -772.8371  -615.3658   746.5899 H6            1 RES     
   21803 H6        -774.5842  -615.5730   747.0083 H6            1 RES     
   21804 H6        -768.5545  -610.4087   740.7669 H6            1 RES     
   21805 H6        -767.6740  -611.8212   741.4149 H6            1 RES     
   21806 H6        -766.3899  -610.5462   742.5187 H6            1 RES     
   21807 H6        -766.7159  -608.8831   742.8324 H6            1 RES     
   21808 H6        -766.9103  -611.1695   744.9336 H6            1 RES     
   21809 H6        -767.6933  -608.9245   745.6599 H6            1 RES     
   21810 H6        -766.4273  -609.6538   746.6895 H6            1 RES     
   21811 H6        -764.6704  -608.1776   745.8317 H6            1 RES     
   21812 H6        -765.7445  -607.5453   744.5700 H6            1 RES     
   21813 H6        -765.6479  -605.8620   746.2433 H6            1 RES     
   21814 H6        -767.2636  -606.5851   746.3596 H6            1 RES     
   21815 H6        -766.5453  -607.9354   748.3462 H6            1 RES     
   21816 H6        -766.4124  -606.1637   748.5779 H6            1 RES     
   21817 H6        -764.0508  -608.0776   748.0076 H6            1 RES     
   21818 H6        -764.4928  -607.3163   749.5688 H6            1 RES     
   21819 H6        -764.0976  -605.0347   748.5853 H6            1 RES     
   21820 H6        -762.6316  -606.0858   748.5333 H6            1 RES     
   21821 H6        -763.5681  -605.8074   747.0348 H6            1 RES     
   21822 H6        -764.8318  -611.7295   744.0657 H6            1 RES     
   21823 H6        -764.4709  -610.8073   745.5523 H6            1 RES     
   21824 H6        -763.9704  -608.7857   743.9070 H6            1 RES     
   21825 H6        -764.1860  -609.9322   742.5768 H6            1 RES     
   21826 H6        -761.8540  -609.4803   743.1654 H6            1 RES     
   21827 H6        -762.0946  -610.0420   744.8551 H6            1 RES     
   21828 H6        -762.3467  -611.8262   742.3288 H6            1 RES     
   21829 H6        -762.5475  -612.3504   744.0413 H6            1 RES     
   21830 H6        -760.1656  -611.7177   744.5312 H6            1 RES     
   21831 H6        -760.3516  -612.9971   743.2794 H6            1 RES     
   21832 H6        -759.7889  -610.0192   742.6895 H6            1 RES     
   21833 H6        -759.9770  -611.3165   741.4562 H6            1 RES     
   21834 H6        -757.6141  -610.6802   741.9033 H6            1 RES     
   21835 H6        -757.7851  -611.1216   743.6386 H6            1 RES     
   21836 H6        -758.1570  -613.5233   742.9691 H6            1 RES     
   21837 H6        -756.6170  -612.8800   742.3111 H6            1 RES     
   21838 H6        -758.0458  -613.0424   741.2241 H6            1 RES     
   21839 C0        -779.2655  -616.2844   738.3816 C0            1 RES     
   21840 C0        -780.7068  -615.8519   737.8930 C0            1 RES     
   21841 C0        -780.7389  -614.5332   737.5873 C0            1 RES     
   21842 S1        -782.2248  -613.9965   737.0209 S1            1 RES     
   21843 C0        -782.9396  -615.5334   737.1408 C0            1 RES     
   21844 C0        -782.0011  -616.4077   737.7076 C0            1 RES     
   21845 C0        -779.4954  -613.9399   737.9123 C0            1 RES     
   21846 C0        -778.6839  -614.8664   738.3692 C0            1 RES     
   21847 C0        -777.4870  -614.2816   738.9054 C0            1 RES     
   21848 C0        -777.5092  -612.9016   738.8149 C0            1 RES     
   21849 S1        -778.9684  -612.2378   737.9934 S1            1 RES     
   21850 H2        -782.2659  -617.4107   737.9217 H2            1 RES     
   21851 H2        -776.7567  -614.8235   739.4281 H2            1 RES     
   21852 N3        -785.8595  -617.6894   736.0148 N3            1 RES     
   21853 C0        -784.6680  -617.2974   736.5470 C0            1 RES     
   21854 C0        -784.3015  -615.9279   736.6335 C0            1 RES     
   21855 C0        -785.2468  -614.9976   736.1500 C0            1 RES     
   21856 N3        -785.0770  -613.6498   736.1552 N3            1 RES     
   21857 S1        -786.4836  -613.1077   735.4817 S1            1 RES     
   21858 N3        -787.3285  -614.4860   735.1591 N3            1 RES     
   21859 C0        -786.4823  -615.4528   735.6031 C0            1 RES     
   21860 C0        -786.7704  -616.8050   735.5398 C0            1 RES     
   21861 H4        -784.0030  -618.0720   736.8685 H4            1 RES     
   21862 C5        -785.6345  -615.6883   729.4961 C5            1 RES     
   21863 C5        -785.4206  -615.0268   730.8575 C5            1 RES     
   21864 C5        -784.8621  -615.9918   731.9171 C5            1 RES     
   21865 C5        -783.4369  -616.4843   731.6050 C5            1 RES     
   21866 C5        -782.9206  -617.4086   732.7183 C5            1 RES     
   21867 C5        -781.4408  -617.7893   732.4925 C5            1 RES     
   21868 C5        -780.8176  -618.6788   733.6011 C5            1 RES     
   21869 C5        -781.0674  -618.0753   734.9843 C5            1 RES     
   21870 C5        -780.1940  -618.5758   736.1623 C5            1 RES     
   21871 C5        -780.4057  -620.0382   736.7146 C5            1 RES     
   21872 C5        -781.7560  -620.0280   737.4836 C5            1 RES     
   21873 C5        -782.4077  -621.1755   738.2642 C5            1 RES     
   21874 C5        -783.7229  -620.5595   738.8457 C5            1 RES     
   21875 C5        -784.6239  -621.4569   739.6923 C5            1 RES     
   21876 C5        -784.0267  -621.7905   741.0538 C5            1 RES     
   21877 C5        -778.8016  -617.9284   736.1719 C5            1 RES     
   21878 C0        -778.3639  -617.4322   737.6108 C0            1 RES     
   21879 C5        -776.7765  -617.3776   737.6712 C5            1 RES     
   21880 C5        -776.0562  -618.1630   738.8223 C5            1 RES     
   21881 C5        -775.9049  -617.3629   740.1483 C5            1 RES     
   21882 C5        -774.7878  -616.2925   740.1479 C5            1 RES     
   21883 C5        -774.8522  -615.3387   741.3570 C5            1 RES     
   21884 C5        -774.4832  -615.9656   742.7107 C5            1 RES     
   21885 C5        -773.0288  -616.4646   742.8139 C5            1 RES     
   21886 C5        -771.9936  -615.3600   742.5791 C5            1 RES     
   21887 C5        -774.7067  -618.8429   738.3672 C5            1 RES     
   21888 C5        -773.7255  -617.9803   737.5263 C5            1 RES     
   21889 C5        -772.3334  -618.6163   737.3127 C5            1 RES     
   21890 C5        -772.3333  -619.9508   736.5409 C5            1 RES     
   21891 C5        -770.9094  -620.5114   736.3033 C5            1 RES     
   21892 C5        -770.0553  -619.6465   735.3503 C5            1 RES     
   21893 C5        -768.6325  -620.1896   735.1171 C5            1 RES     
   21894 C5        -768.5942  -621.5430   734.4075 C5            1 RES     
   21895 H6        -784.6746  -616.0299   729.0593 H6            1 RES     
   21896 H6        -786.0866  -614.9545   728.7960 H6            1 RES     
   21897 H6        -786.3241  -616.5534   729.5960 H6            1 RES     
   21898 H6        -784.7453  -614.1504   730.7458 H6            1 RES     
   21899 H6        -786.4070  -614.6569   731.2133 H6            1 RES     
   21900 H6        -784.8366  -615.4432   732.8853 H6            1 RES     
   21901 H6        -785.5511  -616.8566   732.0291 H6            1 RES     
   21902 H6        -782.7721  -615.5949   731.5270 H6            1 RES     
   21903 H6        -783.4096  -617.0378   730.6442 H6            1 RES     
   21904 H6        -783.0135  -616.8477   733.6727 H6            1 RES     
   21905 H6        -783.5481  -618.3236   732.7747 H6            1 RES     
   21906 H6        -781.3221  -618.3009   731.5133 H6            1 RES     
   21907 H6        -780.8584  -616.8413   732.4531 H6            1 RES     
   21908 H6        -781.2338  -619.7088   733.5768 H6            1 RES     
   21909 H6        -779.7266  -618.7331   733.3963 H6            1 RES     
   21910 H6        -782.1393  -618.2044   735.2242 H6            1 RES     
   21911 H6        -780.9010  -616.9762   734.9144 H6            1 RES     
   21912 H6        -780.5691  -618.0234   736.9453 H6            1 RES     
   21913 H6        -780.3715  -620.7838   735.8927 H6            1 RES     
   21914 H6        -779.6115  -620.2813   737.4546 H6            1 RES     
   21915 H6        -781.5870  -619.2946   738.2944 H6            1 RES     
   21916 H6        -782.5135  -619.6991   736.7524 H6            1 RES     
   21917 H6        -781.7349  -621.5188   739.0796 H6            1 RES     
   21918 H6        -782.6452  -622.0247   737.5905 H6            1 RES     
   21919 H6        -783.4872  -619.6549   739.4549 H6            1 RES     
   21920 H6        -784.3448  -620.2231   737.9871 H6            1 RES     
   21921 H6        -784.8857  -622.3767   739.1312 H6            1 RES     
   21922 H6        -785.5629  -620.8879   739.8846 H6            1 RES     
   21923 H6        -783.8075  -620.8552   741.6155 H6            1 RES     
   21924 H6        -783.0989  -622.3843   740.9436 H6            1 RES     
   21925 H6        -784.7685  -622.3757   741.6383 H6            1 RES     
   21926 H6        -778.7640  -617.0146   735.5402 H6            1 RES     
   21927 H6        -778.1200  -618.6723   735.7059 H6            1 RES     
   21928 H6        -776.4444  -617.9412   736.7788 H6            1 RES     
   21929 H6        -776.3575  -616.3696   737.4810 H6            1 RES     
   21930 H6        -776.7235  -619.0193   739.0702 H6            1 RES     
   21931 H6        -776.8926  -616.9097   740.3747 H6            1 RES     
   21932 H6        -775.6738  -618.0728   740.9718 H6            1 RES     
   21933 H6        -773.7884  -616.7662   740.1116 H6            1 RES     
   21934 H6        -774.8769  -615.6742   739.2350 H6            1 RES     
   21935 H6        -774.1767  -614.4803   741.1656 H6            1 RES     
   21936 H6        -775.8743  -614.9159   741.4402 H6            1 RES     
   21937 H6        -775.1759  -616.8037   742.9347 H6            1 RES     
   21938 H6        -774.6347  -615.1893   743.4924 H6            1 RES     
   21939 H6        -772.8473  -617.2960   742.1021 H6            1 RES     
   21940 H6        -772.8809  -616.8621   743.8407 H6            1 RES     
   21941 H6        -772.1569  -614.5177   743.2850 H6            1 RES     
   21942 H6        -770.9736  -615.7663   742.7399 H6            1 RES     
   21943 H6        -772.0397  -614.9803   741.5376 H6            1 RES     
   21944 H6        -774.9642  -619.7121   737.7242 H6            1 RES     
   21945 H6        -774.1990  -619.2473   739.2698 H6            1 RES     
   21946 H6        -773.5268  -617.0125   738.0056 H6            1 RES     
   21947 H6        -774.1764  -617.7543   736.5365 H6            1 RES     
   21948 H6        -771.7410  -617.8706   736.7461 H6            1 RES     
   21949 H6        -771.8437  -618.7665   738.3002 H6            1 RES     
   21950 H6        -772.8416  -619.8270   735.5601 H6            1 RES     
   21951 H6        -772.8945  -620.6995   737.1360 H6            1 RES     
   21952 H6        -770.3869  -620.6285   737.2780 H6            1 RES     
   21953 H6        -771.0248  -621.5209   735.8515 H6            1 RES     
   21954 H6        -769.9322  -618.6341   735.7833 H6            1 RES     
   21955 H6        -770.5732  -619.5477   734.3713 H6            1 RES     
   21956 H6        -768.0894  -619.4598   734.4766 H6            1 RES     
   21957 H6        -768.0926  -620.2637   736.0856 H6            1 RES     
   21958 H6        -769.0639  -622.3343   735.0254 H6            1 RES     
   21959 H6        -767.5364  -621.8330   734.2291 H6            1 RES     
   21960 H6        -769.1114  -621.4798   733.4266 H6            1 RES     
   21961 C0        -790.7153  -620.1864   734.1095 C0            1 RES     
   21962 C0        -792.0868  -619.4048   734.0050 C0            1 RES     
   21963 C0        -791.8812  -618.0665   733.9861 C0            1 RES     
   21964 S1        -793.2851  -617.1590   733.8366 S1            1 RES     
   21965 C0        -794.2860  -618.5308   733.7761 C0            1 RES     
   21966 C0        -793.4829  -619.6651   733.9623 C0            1 RES     
   21967 C0        -790.5055  -617.7946   734.1803 C0            1 RES     
   21968 C0        -789.8524  -618.9305   734.2746 C0            1 RES     
   21969 C0        -788.4924  -618.7086   734.6787 C0            1 RES     
   21970 C0        -788.2324  -617.3648   734.8771 C0            1 RES     
   21971 S1        -789.6210  -616.2799   734.5034 S1            1 RES     
   21972 H2        -793.9213  -620.6279   734.0145 H2            1 RES     
   21973 H2        -787.8258  -619.4785   734.9302 H2            1 RES     
   21974 N3        -797.7328  -619.8120   732.8165 N3            1 RES     
   21975 C0        -796.4197  -619.7724   733.1787 C0            1 RES     
   21976 C0        -795.7604  -618.5487   733.4701 C0            1 RES     
   21977 C0        -796.5458  -617.3795   733.3767 C0            1 RES     
   21978 N3        -796.0931  -616.1227   733.6234 N3            1 RES     
   21979 S1        -797.4350  -615.1984   733.3570 S1            1 RES     
   21980 N3        -798.5931  -616.2908   732.9289 N3            1 RES     
   21981 C0        -797.9170  -617.4681   732.9960 C0            1 RES     
   21982 C0        -798.4935  -618.6946   732.7153 C0            1 RES     
   21983 H4        -795.8957  -620.7053   733.2021 H4            1 RES     
   21984 C5        -798.0506  -616.3909   726.9222 C5            1 RES     
   21985 C5        -797.5016  -616.1197   728.3228 C5            1 RES     
   21986 C5        -797.0120  -617.3912   729.0365 C5            1 RES     
   21987 C5        -795.7871  -618.0372   728.3632 C5            1 RES     
   21988 C5        -795.3216  -619.2752   729.1449 C5            1 RES     
   21989 C5        -794.0073  -619.8444   728.5666 C5            1 RES     
   21990 C5        -793.4319  -621.0667   729.3304 C5            1 RES     
   21991 C5        -793.3398  -620.7750   730.8291 C5            1 RES     
   21992 C5        -792.4293  -621.6859   731.6906 C5            1 RES     
   21993 C5        -792.8648  -623.1773   731.9638 C5            1 RES     
   21994 C5        -794.0529  -623.1138   732.9633 C5            1 RES     
   21995 C5        -794.8122  -624.2816   733.6043 C5            1 RES     
   21996 C5        -795.8647  -623.6008   734.5403 C5            1 RES     
   21997 C5        -796.8015  -624.5016   735.3433 C5            1 RES     
   21998 C5        -796.0950  -625.2483   736.4680 C5            1 RES     
   21999 C5        -790.9450  -621.3135   731.5644 C5            1 RES     
   22000 C0        -790.2038  -621.2578   732.9628 C0            1 RES     
   22001 C5        -788.6502  -621.4980   732.7274 C5            1 RES     
   22002 C5        -787.9525  -622.6480   733.5344 C5            1 RES     
   22003 C5        -787.4396  -622.2250   734.9413 C5            1 RES     
   22004 C5        -786.1322  -621.3978   734.9445 C5            1 RES     
   22005 C5        -785.8119  -620.7625   736.3118 C5            1 RES     
   22006 C5        -785.3896  -621.7476   737.4130 C5            1 RES     
   22007 C5        -784.0766  -622.5036   737.1315 C5            1 RES     
   22008 C5        -782.8755  -621.5736   736.9322 C5            1 RES     
   22009 C5        -786.8619  -623.4258   732.7002 C5            1 RES     
   22010 C5        -785.8542  -622.5737   731.8801 C5            1 RES     
   22011 C5        -784.6774  -623.3743   731.2785 C5            1 RES     
   22012 C5        -785.0764  -624.4662   730.2659 C5            1 RES     
   22013 C5        -783.8564  -625.1947   729.6505 C5            1 RES     
   22014 C5        -782.9875  -624.2915   728.7476 C5            1 RES     
   22015 C5        -781.7640  -625.0042   728.1402 C5            1 RES     
   22016 C5        -782.1211  -626.1354   727.1761 C5            1 RES     
   22017 H6        -797.2613  -616.7815   726.2491 H6            1 RES     
   22018 H6        -798.4338  -615.4443   726.4861 H6            1 RES     
   22019 H6        -798.8867  -617.1203   726.9743 H6            1 RES     
   22020 H6        -796.6788  -615.3740   728.2644 H6            1 RES     
   22021 H6        -798.3226  -615.6780   728.9290 H6            1 RES     
   22022 H6        -796.7272  -617.1015   730.0729 H6            1 RES     
   22023 H6        -797.8457  -618.1234   729.1003 H6            1 RES     
   22024 H6        -794.9666  -617.2853   728.3418 H6            1 RES     
   22025 H6        -796.0210  -618.3426   727.3229 H6            1 RES     
   22026 H6        -795.1505  -618.9498   730.1931 H6            1 RES     
   22027 H6        -796.1148  -620.0529   729.1332 H6            1 RES     
   22028 H6        -794.1467  -620.1214   727.4996 H6            1 RES     
   22029 H6        -793.2482  -619.0312   728.6100 H6            1 RES     
   22030 H6        -794.0574  -621.9722   729.1772 H6            1 RES     
   22031 H6        -792.4202  -621.2610   728.9133 H6            1 RES     
   22032 H6        -794.3671  -620.7676   731.2388 H6            1 RES     
   22033 H6        -792.9545  -619.7374   730.9538 H6            1 RES     
   22034 H6        -792.5579  -621.2785   732.6267 H6            1 RES     
   22035 H6        -793.1124  -623.7005   731.0164 H6            1 RES     
   22036 H6        -792.0405  -623.7245   732.4724 H6            1 RES     
   22037 H6        -793.6133  -622.6354   733.8586 H6            1 RES     
   22038 H6        -794.8222  -622.4933   732.4736 H6            1 RES     
   22039 H6        -794.1154  -624.9211   734.1882 H6            1 RES     
   22040 H6        -795.3225  -624.8913   732.8302 H6            1 RES     
   22041 H6        -795.3538  -622.9225   735.2641 H6            1 RES     
   22042 H6        -796.5202  -622.9666   733.9038 H6            1 RES     
   22043 H6        -797.3338  -625.2013   734.6677 H6            1 RES     
   22044 H6        -797.5583  -623.8392   735.8239 H6            1 RES     
   22045 H6        -795.6005  -624.5265   737.1556 H6            1 RES     
   22046 H6        -795.3422  -625.9520   736.0633 H6            1 RES     
   22047 H6        -796.8500  -625.8164   737.0524 H6            1 RES     
   22048 H6        -790.8067  -620.2969   731.1367 H6            1 RES     
   22049 H6        -790.5146  -622.0330   730.8348 H6            1 RES     
   22050 H6        -788.5819  -621.8826   731.6921 H6            1 RES     
   22051 H6        -788.0584  -620.5631   732.6695 H6            1 RES     
   22052 H6        -788.7433  -623.4082   733.7263 H6            1 RES     
   22053 H6        -788.2631  -621.6728   735.4405 H6            1 RES     
   22054 H6        -787.2465  -623.1394   735.5431 H6            1 RES     
   22055 H6        -785.2737  -622.0168   734.6214 H6            1 RES     
   22056 H6        -786.2209  -620.5746   734.2109 H6            1 RES     
   22057 H6        -785.0045  -620.0151   736.1731 H6            1 RES     
   22058 H6        -786.6963  -620.1992   736.6738 H6            1 RES     
   22059 H6        -786.2045  -622.4803   737.5905 H6            1 RES     
   22060 H6        -785.2545  -621.1650   738.3506 H6            1 RES     
   22061 H6        -784.1841  -623.1606   736.2441 H6            1 RES     
   22062 H6        -783.8670  -623.1531   738.0080 H6            1 RES     
   22063 H6        -782.7490  -620.9079   737.8127 H6            1 RES     
   22064 H6        -781.9536  -622.1787   736.8082 H6            1 RES     
   22065 H6        -782.9927  -620.9554   736.0184 H6            1 RES     
   22066 H6        -787.3912  -624.0584   731.9553 H6            1 RES     
   22067 H6        -786.3247  -624.1155   733.3870 H6            1 RES     
   22068 H6        -785.3847  -621.7977   732.4991 H6            1 RES     
   22069 H6        -786.3875  -622.0437   731.0624 H6            1 RES     
   22070 H6        -784.0296  -622.6311   730.7726 H6            1 RES     
   22071 H6        -784.0907  -623.8383   732.1021 H6            1 RES     
   22072 H6        -785.6857  -624.0259   729.4469 H6            1 RES     
   22073 H6        -785.6905  -625.2246   730.7926 H6            1 RES     
   22074 H6        -783.2328  -625.6296   730.4622 H6            1 RES     
   22075 H6        -784.2502  -626.0317   729.0334 H6            1 RES     
   22076 H6        -782.5883  -623.4486   729.3457 H6            1 RES     
   22077 H6        -783.6111  -623.8738   727.9272 H6            1 RES     
   22078 H6        -781.1782  -624.2497   727.5696 H6            1 RES     
   22079 H6        -781.1154  -625.3995   728.9514 H6            1 RES     
   22080 H6        -782.6525  -626.9559   727.6984 H6            1 RES     
   22081 H6        -781.1879  -626.5553   726.7429 H6            1 RES     
   22082 H6        -782.7519  -625.7514   726.3465 H6            1 RES     
   22083 C0        -803.2369  -620.8949   731.4109 C0            1 RES     
   22084 C0        -804.4097  -619.8830   731.7328 C0            1 RES     
   22085 C0        -803.9279  -618.6359   731.9475 C0            1 RES     
   22086 S1        -805.1118  -617.4874   732.2582 S1            1 RES     
   22087 C0        -806.3804  -618.6085   732.1130 C0            1 RES     
   22088 C0        -805.8197  -619.8771   731.9067 C0            1 RES     
   22089 C0        -802.5127  -618.6631   731.9254 C0            1 RES     
   22090 C0        -802.1109  -619.8852   731.6594 C0            1 RES     
   22091 C0        -800.6904  -620.0073   731.8316 C0            1 RES     
   22092 C0        -800.1228  -618.8160   732.2456 C0            1 RES     
   22093 S1        -801.2871  -617.4475   732.3741 S1            1 RES     
   22094 H2        -806.4412  -620.7327   731.8450 H2            1 RES     
   22095 H2        -800.1741  -620.9194   731.7884 H2            1 RES     
   22096 N3        -810.1244  -619.0011   731.5923 N3            1 RES     
   22097 C0        -808.7945  -619.2793   731.6961 C0            1 RES     
   22098 C0        -807.8532  -618.2947   732.0984 C0            1 RES     
   22099 C0        -808.3756  -617.0179   732.3974 C0            1 RES     
   22100 N3        -807.6334  -615.9549   732.8032 N3            1 RES     
   22101 S1        -808.7711  -614.7736   732.9931 S1            1 RES     
   22102 N3        -810.1861  -615.5128   732.5819 N3            1 RES     
   22103 C0        -809.7749  -616.7721   732.2770 C0            1 RES     
   22104 C0        -810.6352  -617.7762   731.8685 C0            1 RES     
   22105 H4        -808.4843  -620.2680   731.4281 H4            1 RES     
   22106 C5        -810.5708  -614.2765   726.6905 C5            1 RES     
   22107 C5        -809.7759  -614.4463   727.9851 C5            1 RES     
   22108 C5        -809.4693  -615.9165   728.3176 C5            1 RES     
   22109 C5        -808.5240  -616.5882   727.3046 C5            1 RES     
   22110 C5        -808.2235  -618.0382   727.7138 C5            1 RES     
   22111 C5        -807.1615  -618.6749   726.7905 C5            1 RES     
   22112 C5        -806.7542  -620.1250   727.1646 C5            1 RES     
   22113 C5        -806.3816  -620.2184   728.6453 C5            1 RES     
   22114 C5        -805.5698  -621.4528   729.1122 C5            1 RES     
   22115 C5        -806.2686  -622.8665   729.1546 C5            1 RES     
   22116 C5        -807.2547  -622.8352   730.3551 C5            1 RES     
   22117 C5        -808.1428  -623.9702   730.8785 C5            1 RES     
   22118 C5        -808.8755  -623.3578   732.1176 C5            1 RES     
   22119 C5        -809.8540  -624.2452   732.8850 C5            1 RES     
   22120 C5        -809.1652  -625.3495   733.6772 C5            1 RES     
   22121 C5        -804.0754  -621.3269   728.7820 C5            1 RES     
   22122 C0        -803.1413  -621.7357   729.9938 C0            1 RES     
   22123 C5        -801.7271  -622.1813   729.4207 C5            1 RES     
   22124 C5        -801.1799  -623.5940   729.8276 C5            1 RES     
   22125 C5        -800.3864  -623.6139   731.1660 C5            1 RES     
   22126 C5        -798.9466  -623.0532   731.0865 C5            1 RES     
   22127 C5        -798.2996  -622.8270   732.4671 C5            1 RES     
   22128 C5        -797.9397  -624.1039   733.2428 C5            1 RES     
   22129 C5        -796.8749  -624.9892   732.5667 C5            1 RES     
   22130 C5        -795.5458  -624.2636   732.3342 C5            1 RES     
   22131 C5        -800.4162  -624.3299   728.6591 C5            1 RES     
   22132 C5        -799.3821  -623.4974   727.8518 C5            1 RES     
   22133 C5        -798.5056  -624.3256   726.8854 C5            1 RES     
   22134 C5        -799.2739  -625.0583   725.7676 C5            1 RES     
   22135 C5        -798.3423  -625.8218   724.7944 C5            1 RES     
   22136 C5        -797.4435  -624.8965   723.9446 C5            1 RES     
   22137 C5        -796.5041  -625.6474   722.9816 C5            1 RES     
   22138 C5        -797.2331  -626.4367   721.8943 C5            1 RES     
   22139 H6        -809.9914  -614.6281   725.8133 H6            1 RES     
   22140 H6        -810.8029  -613.2014   726.5381 H6            1 RES     
   22141 H6        -811.5264  -614.8395   726.7526 H6            1 RES     
   22142 H6        -808.8305  -613.8640   727.9229 H6            1 RES     
   22143 H6        -810.3847  -614.0245   728.8145 H6            1 RES     
   22144 H6        -808.9793  -615.9357   729.3169 H6            1 RES     
   22145 H6        -810.4214  -616.4852   728.3897 H6            1 RES     
   22146 H6        -807.5741  -616.0084   727.2796 H6            1 RES     
   22147 H6        -808.9687  -616.5919   726.2885 H6            1 RES     
   22148 H6        -807.8340  -618.0063   728.7536 H6            1 RES     
   22149 H6        -809.1575  -618.6397   727.6964 H6            1 RES     
   22150 H6        -807.5128  -618.6617   725.7365 H6            1 RES     
   22151 H6        -806.2482  -618.0412   726.8520 H6            1 RES     
   22152 H6        -807.5744  -620.8442   726.9533 H6            1 RES     
   22153 H6        -805.8804  -620.3887   726.5306 H6            1 RES     
   22154 H6        -807.3115  -620.1288   729.2372 H6            1 RES     
   22155 H6        -805.7694  -619.3240   728.9022 H6            1 RES     
   22156 H6        -805.4686  -621.2634   730.1186 H6            1 RES     
   22157 H6        -806.7595  -623.0979   728.1860 H6            1 RES     
   22158 H6        -805.5144  -623.6544   729.3733 H6            1 RES     
   22159 H6        -806.5957  -622.6677   731.2277 H6            1 RES     
   22160 H6        -807.9373  -621.9912   730.1588 H6            1 RES     
   22161 H6        -807.5204  -624.8420   731.1751 H6            1 RES     
   22162 H6        -808.8803  -624.2795   730.1091 H6            1 RES     
   22163 H6        -808.1303  -622.9711   732.8525 H6            1 RES     
   22164 H6        -809.4670  -622.4859   731.7614 H6            1 RES     
   22165 H6        -810.6174  -624.6601   732.1960 H6            1 RES     
   22166 H6        -810.3723  -623.5939   733.6265 H6            1 RES     
   22167 H6        -808.4319  -624.9098   734.3894 H6            1 RES     
   22168 H6        -808.6484  -626.0575   733.0010 H6            1 RES     
   22169 H6        -809.9294  -625.8990   734.2676 H6            1 RES     
   22170 H6        -803.7879  -620.2782   728.5518 H6            1 RES     
   22171 H6        -803.9213  -621.9164   727.8525 H6            1 RES     
   22172 H6        -801.8962  -622.3149   728.3354 H6            1 RES     
   22173 H6        -800.9643  -621.3779   729.4419 H6            1 RES     
   22174 H6        -802.0776  -624.2274   730.0088 H6            1 RES     
   22175 H6        -800.9899  -623.0606   731.9156 H6            1 RES     
   22176 H6        -800.3064  -624.6642   731.5206 H6            1 RES     
   22177 H6        -798.2976  -623.7181   730.4856 H6            1 RES     
   22178 H6        -798.9647  -622.0769   730.5668 H6            1 RES     
   22179 H6        -797.3807  -622.2214   732.3311 H6            1 RES     
   22180 H6        -798.9798  -622.2200   733.0990 H6            1 RES     
   22181 H6        -798.8570  -624.7034   733.4204 H6            1 RES     
   22182 H6        -797.5463  -623.7936   734.2356 H6            1 RES     
   22183 H6        -797.2502  -625.3873   731.6016 H6            1 RES     
   22184 H6        -796.6818  -625.8547   733.2358 H6            1 RES     
   22185 H6        -795.1512  -623.8589   733.2908 H6            1 RES     
   22186 H6        -794.8031  -624.9737   731.9150 H6            1 RES     
   22187 H6        -795.6618  -623.4353   731.6052 H6            1 RES     
   22188 H6        -801.1725  -624.6648   727.9167 H6            1 RES     
   22189 H6        -799.9433  -625.2461   729.0750 H6            1 RES     
   22190 H6        -798.6714  -622.9852   728.5140 H6            1 RES     
   22191 H6        -799.9046  -622.7034   727.2769 H6            1 RES     
   22192 H6        -797.7960  -623.6087   726.4267 H6            1 RES     
   22193 H6        -797.9166  -625.0672   727.4691 H6            1 RES     
   22194 H6        -799.8891  -624.3364   725.1878 H6            1 RES     
   22195 H6        -799.9512  -625.8006   726.2367 H6            1 RES     
   22196 H6        -797.7132  -626.5394   725.3655 H6            1 RES     
   22197 H6        -798.9926  -626.4060   724.1071 H6            1 RES     
   22198 H6        -796.7896  -624.3032   724.6138 H6            1 RES     
   22199 H6        -798.0777  -624.1934   723.3617 H6            1 RES     
   22200 H6        -795.8615  -624.8936   722.4750 H6            1 RES     
   22201 H6        -795.8425  -626.3315   723.5555 H6            1 RES     
   22202 H6        -797.8444  -627.2518   722.3307 H6            1 RES     
   22203 H6        -796.4856  -626.8984   721.2138 H6            1 RES     
   22204 H6        -797.8827  -625.7623   721.2970 H6            1 RES     
   22205 C0        -815.8785  -618.7381   731.0785 C0            1 RES     
   22206 C0        -816.7473  -617.6424   731.8186 C0            1 RES     
   22207 C0        -815.9839  -616.5862   732.1861 C0            1 RES     
   22208 S1        -816.8358  -615.3554   732.9452 S1            1 RES     
   22209 C0        -818.3219  -616.1699   732.8211 C0            1 RES     
   22210 C0        -818.0820  -617.4312   732.2573 C0            1 RES     
   22211 C0        -814.6263  -616.8547   731.8877 C0            1 RES     
   22212 C0        -814.5387  -618.0296   731.3065 C0            1 RES     
   22213 C0        -813.1677  -618.4359   731.1745 C0            1 RES     
   22214 C0        -812.3039  -617.4954   731.7055 C0            1 RES     
   22215 S1        -813.1167  -616.0145   732.3308 S1            1 RES     
   22216 H2        -818.8741  -618.1251   732.1432 H2            1 RES     
   22217 H2        -812.8704  -619.3875   730.8482 H2            1 RES     
   22218 N3        -822.0981  -615.7657   732.9597 N3            1 RES     
   22219 C0        -820.8580  -616.2891   732.7476 C0            1 RES     
   22220 C0        -819.6792  -615.6087   733.1536 C0            1 RES     
   22221 C0        -819.8666  -614.3683   733.8008 C0            1 RES     
   22222 N3        -818.8628  -613.5790   734.2643 N3            1 RES     
   22223 S1        -819.6810  -612.2962   734.9054 S1            1 RES     
   22224 N3        -821.2661  -612.6570   734.6317 N3            1 RES     
   22225 C0        -821.1831  -613.8598   734.0038 C0            1 RES     
   22226 C0        -822.2888  -614.5715   733.5722 C0            1 RES     
   22227 H4        -820.8093  -617.2244   732.2296 H4            1 RES     
   22228 C5        -822.2436  -610.0089   729.3009 C5            1 RES     
   22229 C5        -821.3210  -610.6179   730.3567 C5            1 RES     
   22230 C5        -821.2900  -612.1552   730.3179 C5            1 RES     
   22231 C5        -820.6703  -612.7219   729.0273 C5            1 RES     
   22232 C5        -820.6296  -614.2572   729.0673 C5            1 RES     
   22233 C5        -819.8764  -614.8322   727.8475 C5            1 RES     
   22234 C5        -819.7378  -616.3779   727.8334 C5            1 RES     
   22235 C5        -819.1792  -616.8841   729.1644 C5            1 RES     
   22236 C5        -818.5901  -618.3166   729.2057 C5            1 RES     
   22237 C5        -819.5608  -619.5550   729.0927 C5            1 RES     
   22238 C5        -820.3291  -619.6376   730.4409 C5            1 RES     
   22239 C5        -821.3519  -620.6909   730.8828 C5            1 RES     
   22240 C5        -821.7455  -620.2719   732.3377 C5            1 RES     
   22241 C5        -822.7667  -621.1306   733.0816 C5            1 RES     
   22242 C5        -822.2206  -622.4946   733.4853 C5            1 RES     
   22243 C5        -817.1689  -618.3795   728.6276 C5            1 RES     
   22244 C0        -816.1752  -619.2216   729.5285 C0            1 RES     
   22245 C5        -814.9895  -619.7588   728.6162 C5            1 RES     
   22246 C5        -814.7029  -621.3011   728.6143 C5            1 RES     
   22247 C5        -813.7432  -621.7769   729.7430 C5            1 RES     
   22248 C5        -812.2447  -621.4745   729.5045 C5            1 RES     
   22249 C5        -811.3677  -621.6996   730.7519 C5            1 RES     
   22250 C5        -811.1784  -623.1669   731.1677 C5            1 RES     
   22251 C5        -810.4392  -624.0386   730.1341 C5            1 RES     
   22252 C5        -809.0350  -623.5229   729.8035 C5            1 RES     
   22253 C5        -814.2952  -621.8604   727.1961 C5            1 RES     
   22254 C5        -813.2379  -621.0543   726.3921 C5            1 RES     
   22255 C5        -812.7113  -621.7694   725.1276 C5            1 RES     
   22256 C5        -813.7748  -622.0695   724.0526 C5            1 RES     
   22257 C5        -813.1821  -622.7309   722.7841 C5            1 RES     
   22258 C5        -812.2420  -621.8024   721.9841 C5            1 RES     
   22259 C5        -811.6375  -622.4556   720.7265 C5            1 RES     
   22260 C5        -812.6708  -622.8237   719.6618 C5            1 RES     
   22261 H6        -821.8888  -610.2380   728.2760 H6            1 RES     
   22262 H6        -822.2605  -608.9048   729.4179 H6            1 RES     
   22263 H6        -823.2775  -610.3943   729.4293 H6            1 RES     
   22264 H6        -820.2928  -610.2123   730.2341 H6            1 RES     
   22265 H6        -821.6962  -610.3053   731.3557 H6            1 RES     
   22266 H6        -820.6734  -612.4968   731.1793 H6            1 RES     
   22267 H6        -822.3203  -612.5491   730.4541 H6            1 RES     
   22268 H6        -819.6328  -612.3283   728.9390 H6            1 RES     
   22269 H6        -821.2507  -612.4062   728.1363 H6            1 RES     
   22270 H6        -820.0930  -614.5419   729.9973 H6            1 RES     
   22271 H6        -821.6626  -614.6642   729.1074 H6            1 RES     
   22272 H6        -820.3686  -614.5076   726.9056 H6            1 RES     
   22273 H6        -818.8500  -614.4012   727.8603 H6            1 RES     
   22274 H6        -820.7147  -616.8713   727.6415 H6            1 RES     
   22275 H6        -819.0439  -616.6322   727.0033 H6            1 RES     
   22276 H6        -819.9706  -616.7763   729.9294 H6            1 RES     
   22277 H6        -818.3589  -616.1978   729.4756 H6            1 RES     
   22278 H6        -818.3033  -618.3924   730.1910 H6            1 RES     
   22279 H6        -820.2273  -619.4600   728.2099 H6            1 RES     
   22280 H6        -818.9685  -620.4918   728.9976 H6            1 RES     
   22281 H6        -819.5280  -619.8002   731.1863 H6            1 RES     
   22282 H6        -820.8368  -618.6651   730.5552 H6            1 RES     
   22283 H6        -820.8933  -621.7033   730.8708 H6            1 RES     
   22284 H6        -822.2438  -620.6745   730.2227 H6            1 RES     
   22285 H6        -820.8347  -620.2075   732.9790 H6            1 RES     
   22286 H6        -822.1830  -619.2505   732.2867 H6            1 RES     
   22287 H6        -823.6943  -621.2297   732.4822 H6            1 RES     
   22288 H6        -823.0185  -620.5938   734.0255 H6            1 RES     
   22289 H6        -821.3133  -622.3720   734.1178 H6            1 RES     
   22290 H6        -821.9727  -623.1009   732.5928 H6            1 RES     
   22291 H6        -822.9888  -623.0260   734.0869 H6            1 RES     
   22292 H6        -816.7011  -617.3732   728.5648 H6            1 RES     
   22293 H6        -817.2833  -618.7490   727.5856 H6            1 RES     
   22294 H6        -815.3416  -619.5990   727.5795 H6            1 RES     
   22295 H6        -814.0780  -619.1298   728.6537 H6            1 RES     
   22296 H6        -815.6783  -621.7921   728.8317 H6            1 RES     
   22297 H6        -814.0970  -621.3207   730.6911 H6            1 RES     
   22298 H6        -813.8380  -622.8788   729.8543 H6            1 RES     
   22299 H6        -811.8488  -622.0807   728.6677 H6            1 RES     
   22300 H6        -812.1303  -620.4150   729.2078 H6            1 RES     
   22301 H6        -810.3709  -621.2496   730.5683 H6            1 RES     
   22302 H6        -811.8015  -621.1507   731.6127 H6            1 RES     
   22303 H6        -812.1661  -623.6213   731.3922 H6            1 RES     
   22304 H6        -810.5855  -623.1751   732.1085 H6            1 RES     
   22305 H6        -811.0292  -624.1240   729.1985 H6            1 RES     
   22306 H6        -810.3389  -625.0584   730.5633 H6            1 RES     
   22307 H6        -808.4262  -623.4325   730.7285 H6            1 RES     
   22308 H6        -808.5315  -624.2318   729.1140 H6            1 RES     
   22309 H6        -809.0777  -622.5380   729.2944 H6            1 RES     
   22310 H6        -815.2068  -621.8715   726.5604 H6            1 RES     
   22311 H6        -813.9729  -622.9174   727.3183 H6            1 RES     
   22312 H6        -812.3444  -620.8466   726.9957 H6            1 RES     
   22313 H6        -813.6577  -620.0675   726.1021 H6            1 RES     
   22314 H6        -811.9405  -621.0998   724.6969 H6            1 RES     
   22315 H6        -812.2147  -622.7198   725.4240 H6            1 RES     
   22316 H6        -814.3003  -621.1343   723.7610 H6            1 RES     
   22317 H6        -814.5182  -622.7715   724.4819 H6            1 RES     
   22318 H6        -812.6436  -623.6623   723.0656 H6            1 RES     
   22319 H6        -814.0365  -623.0119   722.1301 H6            1 RES     
   22320 H6        -811.3849  -621.5089   722.6219 H6            1 RES     
   22321 H6        -812.7902  -620.8810   721.6893 H6            1 RES     
   22322 H6        -810.9307  -621.7275   720.2702 H6            1 RES     
   22323 H6        -811.0600  -623.3613   721.0113 H6            1 RES     
   22324 H6        -813.3708  -623.5991   720.0322 H6            1 RES     
   22325 H6        -812.1481  -623.2341   718.7711 H6            1 RES     
   22326 H6        -813.2421  -621.9237   719.3503 H6            1 RES     
   22327 C0        -827.6744  -614.3847   733.6241 C0            1 RES     
   22328 C0        -828.1699  -613.3616   734.7244 C0            1 RES     
   22329 C0        -827.1526  -612.5733   735.1457 C0            1 RES     
   22330 S1        -827.6001  -611.4285   736.2885 S1            1 RES     
   22331 C0        -829.2276  -611.9170   736.2887 C0            1 RES     
   22332 C0        -829.3488  -613.0302   735.4447 C0            1 RES     
   22333 C0        -825.9431  -612.9968   734.5441 C0            1 RES     
   22334 C0        -826.1954  -613.9966   733.7302 C0            1 RES     
   22335 C0        -824.9779  -614.5935   733.2576 C0            1 RES     
   22336 C0        -823.8643  -613.9723   733.7931 C0            1 RES     
   22337 S1        -824.2404  -612.5636   734.8508 S1            1 RES     
   22338 H2        -830.2788  -613.5275   735.3459 H2            1 RES     
   22339 H2        -824.9423  -615.4773   732.6937 H2            1 RES     
   22340 N3        -832.7674  -610.9026   737.2287 N3            1 RES     
   22341 C0        -831.7130  -611.5693   736.6805 C0            1 RES     
   22342 C0        -830.3693  -611.2222   736.9826 C0            1 RES     
   22343 C0        -830.1896  -610.1579   737.8924 C0            1 RES     
   22344 N3        -828.9832  -609.6897   738.3055 N3            1 RES     
   22345 S1        -829.4044  -608.4730   739.3390 S1            1 RES     
   22346 N3        -831.0526  -608.4752   739.3070 N3            1 RES     
   22347 C0        -831.3223  -609.4897   738.4434 C0            1 RES     
   22348 C0        -832.6059  -609.8737   738.0964 C0            1 RES     
   22349 H4        -831.9424  -612.3485   735.9835 H4            1 RES     
   22350 C5        -832.2180  -604.5076   734.9156 C5            1 RES     
   22351 C5        -831.3013  -605.5017   735.6282 C5            1 RES     
   22352 C5        -831.6057  -606.9668   735.2721 C5            1 RES     
   22353 C5        -831.3190  -607.3102   733.7987 C5            1 RES     
   22354 C5        -831.6019  -608.7937   733.5169 C5            1 RES     
   22355 C5        -831.1776  -609.1852   732.0842 C5            1 RES     
   22356 C5        -831.3760  -610.6830   731.7295 C5            1 RES     
   22357 C5        -830.7483  -611.5807   732.7971 C5            1 RES     
   22358 C5        -830.4794  -613.0624   732.4322 C5            1 RES     
   22359 C5        -831.6981  -614.0487   732.2579 C5            1 RES     
   22360 C5        -832.2585  -614.3134   733.6829 C5            1 RES     
   22361 C5        -833.4061  -615.2457   734.0891 C5            1 RES     
   22362 C5        -833.4818  -615.1220   735.6467 C5            1 RES     
   22363 C5        -834.5415  -615.9404   736.3821 C5            1 RES     
   22364 C5        -834.2460  -617.4351   736.3872 C5            1 RES     
   22365 C5        -829.2059  -613.2340   731.5916 C5            1 RES     
   22366 C0        -828.2931  -614.4266   732.0945 C0            1 RES     
   22367 C5        -827.3976  -614.9308   730.8818 C5            1 RES     
   22368 C5        -827.4507  -616.4541   730.5111 C5            1 RES     
   22369 C5        -826.4590  -617.3449   731.3137 C5            1 RES     
   22370 C5        -824.9825  -617.2617   730.8588 C5            1 RES     
   22371 C5        -823.9995  -617.9267   731.8422 C5            1 RES     
   22372 C5        -824.0688  -619.4605   731.9065 C5            1 RES     
   22373 C5        -823.6940  -620.1773   730.5948 C5            1 RES     
   22374 C5        -822.2766  -619.8519   730.1130 C5            1 RES     
   22375 C5        -827.3861  -616.7230   728.9574 C5            1 RES     
   22376 C5        -826.3116  -615.9469   728.1467 C5            1 RES     
   22377 C5        -826.1426  -616.4220   726.6860 C5            1 RES     
   22378 C5        -827.3926  -616.2672   725.7970 C5            1 RES     
   22379 C5        -827.1489  -616.7016   724.3308 C5            1 RES     
   22380 C5        -826.1608  -615.7889   723.5713 C5            1 RES     
   22381 C5        -825.9024  -616.2202   722.1150 C5            1 RES     
   22382 C5        -827.1361  -616.1381   721.2161 C5            1 RES     
   22383 H6        -832.0758  -604.5450   733.8168 H6            1 RES     
   22384 H6        -831.9811  -603.4775   735.2558 H6            1 RES     
   22385 H6        -833.2798  -604.7252   735.1587 H6            1 RES     
   22386 H6        -830.2399  -605.2651   735.3957 H6            1 RES     
   22387 H6        -831.4493  -605.3747   736.7230 H6            1 RES     
   22388 H6        -830.9559  -607.6058   735.9113 H6            1 RES     
   22389 H6        -832.6647  -607.1950   735.5204 H6            1 RES     
   22390 H6        -830.2460  -607.0948   733.5950 H6            1 RES     
   22391 H6        -831.9435  -606.6953   733.1190 H6            1 RES     
   22392 H6        -831.0072  -609.3806   734.2489 H6            1 RES     
   22393 H6        -832.6804  -609.0113   733.6708 H6            1 RES     
   22394 H6        -831.7226  -608.5652   731.3405 H6            1 RES     
   22395 H6        -830.0924  -608.9562   731.9872 H6            1 RES     
   22396 H6        -832.4532  -610.9378   731.6323 H6            1 RES     
   22397 H6        -830.8830  -610.8503   730.7476 H6            1 RES     
   22398 H6        -831.3765  -611.5208   733.7054 H6            1 RES     
   22399 H6        -829.7635  -611.1425   733.0782 H6            1 RES     
   22400 H6        -830.0731  -613.4191   733.3077 H6            1 RES     
   22401 H6        -832.4519  -613.6316   731.5576 H6            1 RES     
   22402 H6        -831.3404  -615.0250   731.8623 H6            1 RES     
   22403 H6        -831.4096  -614.7861   734.2117 H6            1 RES     
   22404 H6        -832.5241  -613.3224   734.0880 H6            1 RES     
   22405 H6        -833.1814  -616.2904   733.7835 H6            1 RES     
   22406 H6        -834.3613  -614.9170   733.6298 H6            1 RES     
   22407 H6        -832.4937  -615.3723   736.1007 H6            1 RES     
   22408 H6        -833.6934  -614.0574   735.8895 H6            1 RES     
   22409 H6        -835.5470  -615.7302   735.9644 H6            1 RES     
   22410 H6        -834.5305  -615.6076   737.4459 H6            1 RES     
   22411 H6        -833.2502  -617.6272   736.8453 H6            1 RES     
   22412 H6        -834.2680  -617.8459   735.3594 H6            1 RES     
   22413 H6        -835.0125  -617.9513   737.0041 H6            1 RES     
   22414 H6        -828.5483  -612.3395   731.6464 H6            1 RES     
   22415 H6        -829.5492  -613.3194   730.5380 H6            1 RES     
   22416 H6        -827.8566  -614.4701   729.9865 H6            1 RES     
   22417 H6        -826.3775  -614.4983   730.8709 H6            1 RES     
   22418 H6        -828.4656  -616.8040   730.8070 H6            1 RES     
   22419 H6        -826.5631  -617.0723   732.3847 H6            1 RES     
   22420 H6        -826.7696  -618.4075   731.2145 H6            1 RES     
   22421 H6        -824.8534  -617.7114   729.8560 H6            1 RES     
   22422 H6        -824.6895  -616.1989   730.7675 H6            1 RES     
   22423 H6        -822.9679  -617.6276   731.5663 H6            1 RES     
   22424 H6        -824.1740  -617.5307   732.8636 H6            1 RES     
   22425 H6        -825.0866  -619.7750   732.2191 H6            1 RES     
   22426 H6        -823.3592  -619.7957   732.6943 H6            1 RES     
   22427 H6        -824.4202  -619.9334   729.7924 H6            1 RES     
   22428 H6        -823.7517  -621.2712   730.7801 H6            1 RES     
   22429 H6        -821.5328  -620.0919   730.9027 H6            1 RES     
   22430 H6        -822.0437  -620.4536   729.2101 H6            1 RES     
   22431 H6        -822.1826  -618.7825   729.8329 H6            1 RES     
   22432 H6        -828.3626  -616.4230   728.5198 H6            1 RES     
   22433 H6        -827.2827  -617.8184   728.7978 H6            1 RES     
   22434 H6        -825.3152  -616.0484   728.5970 H6            1 RES     
   22435 H6        -826.5489  -614.8617   728.1496 H6            1 RES     
   22436 H6        -825.3188  -615.8149   726.2610 H6            1 RES     
   22437 H6        -825.8225  -617.4875   726.6819 H6            1 RES     
   22438 H6        -827.7432  -615.2123   725.8082 H6            1 RES     
   22439 H6        -828.1970  -616.9097   726.2089 H6            1 RES     
   22440 H6        -826.7863  -617.7527   724.3082 H6            1 RES     
   22441 H6        -828.1306  -616.6651   723.8097 H6            1 RES     
   22442 H6        -825.1761  -615.8102   724.0789 H6            1 RES     
   22443 H6        -826.5368  -614.7426   723.5810 H6            1 RES     
   22444 H6        -825.1317  -615.5399   721.6895 H6            1 RES     
   22445 H6        -825.4962  -617.2543   722.0932 H6            1 RES     
   22446 H6        -827.9231  -616.8444   721.5483 H6            1 RES     
   22447 H6        -826.8507  -616.4101   720.1771 H6            1 RES     
   22448 H6        -827.5415  -615.1041   721.2099 H6            1 RES     
   22449 C0        -837.7590  -608.7645   739.2177 C0            1 RES     
   22450 C0        -837.8563  -607.9615   740.5773 C0            1 RES     
   22451 C0        -836.6433  -607.4866   740.9471 C0            1 RES     
   22452 S1        -836.6620  -606.5859   742.3631 S1            1 RES     
   22453 C0        -838.3380  -606.7676   742.5762 C0            1 RES     
   22454 C0        -838.8176  -607.6096   741.5625 C0            1 RES     
   22455 C0        -835.6547  -607.9600   740.0512 C0            1 RES     
   22456 C0        -836.2322  -608.6777   739.1147 C0            1 RES     
   22457 C0        -835.2538  -609.3491   738.3058 C0            1 RES     
   22458 C0        -833.9666  -609.0777   738.7327 C0            1 RES     
   22459 S1        -833.8725  -607.9171   740.1071 S1            1 RES     
   22460 H2        -839.8365  -607.8983   741.5449 H2            1 RES     
   22461 H2        -835.4915  -610.0657   737.5777 H2            1 RES     
   22462 N3        -841.4006  -605.4018   744.3643 N3            1 RES     
   22463 C0        -840.6058  -606.0933   743.5000 C0            1 RES     
   22464 C0        -839.1895  -606.0687   743.6029 C0            1 RES     
   22465 C0        -838.6542  -605.2994   744.6585 C0            1 RES     
   22466 N3        -837.3281  -605.1614   744.9189 N3            1 RES     
   22467 S1        -837.3222  -604.1707   746.2396 S1            1 RES     
   22468 N3        -838.9190  -603.8765   746.5247 N3            1 RES     
   22469 C0        -839.5238  -604.5935   745.5408 C0            1 RES     
   22470 C0        -840.8966  -604.6532   745.3758 C0            1 RES     
   22471 H4        -841.0968  -606.6320   742.7163 H4            1 RES     
   22472 C5        -839.8451  -598.8383   743.3397 C5            1 RES     
   22473 C5        -839.0670  -600.1180   743.6457 C5            1 RES     
   22474 C5        -839.7267  -601.3800   743.0640 C5            1 RES     
   22475 C5        -839.7408  -601.4083   741.5246 C5            1 RES     
   22476 C5        -840.3727  -602.7093   741.0063 C5            1 RES     
   22477 C5        -840.2582  -602.8173   739.4697 C5            1 RES     
   22478 C5        -840.8223  -604.1293   738.8624 C5            1 RES     
   22479 C5        -840.2502  -605.3506   739.5842 C5            1 RES     
   22480 C5        -840.3612  -606.7267   738.8807 C5            1 RES     
   22481 C5        -841.7745  -607.4143   738.7465 C5            1 RES     
   22482 C5        -842.1618  -607.9076   740.1682 C5            1 RES     
   22483 C5        -843.4092  -608.6938   740.5886 C5            1 RES     
   22484 C5        -843.2258  -608.9324   742.1238 C5            1 RES     
   22485 C5        -844.3154  -609.7035   742.8666 C5            1 RES     
   22486 C5        -844.3487  -611.1846   742.5106 C5            1 RES     
   22487 C5        -839.2922  -606.9140   737.7944 C5            1 RES     
   22488 C0        -838.5913  -608.3327   737.8593 C0            1 RES     
   22489 C5        -838.0135  -608.6832   736.4206 C5            1 RES     
   22490 C5        -838.4450  -610.0413   735.7648 C5            1 RES     
   22491 C5        -837.5591  -611.2568   736.1638 C5            1 RES     
   22492 C5        -836.1828  -611.3277   735.4606 C5            1 RES     
   22493 C5        -835.2304  -612.3689   736.0808 C5            1 RES     
   22494 C5        -835.6156  -613.8375   735.8436 C5            1 RES     
   22495 C5        -835.6005  -614.2764   734.3665 C5            1 RES     
   22496 C5        -834.2335  -614.0993   733.6982 C5            1 RES     
   22497 C5        -838.6695  -609.9405   734.2060 C5            1 RES     
   22498 C5        -837.5858  -609.1945   733.3795 C5            1 RES     
   22499 C5        -837.7399  -609.3311   731.8480 C5            1 RES     
   22500 C5        -839.0452  -608.7531   731.2658 C5            1 RES     
   22501 C5        -839.1193  -608.8625   729.7229 C5            1 RES     
   22502 C5        -838.0822  -607.9831   728.9899 C5            1 RES     
   22503 C5        -838.1400  -608.0944   727.4544 C5            1 RES     
   22504 C5        -839.4466  -607.5864   726.8448 C5            1 RES     
   22505 H6        -839.8780  -598.6381   742.2499 H6            1 RES     
   22506 H6        -839.3460  -597.9764   743.8306 H6            1 RES     
   22507 H6        -840.8811  -598.9181   743.7326 H6            1 RES     
   22508 H6        -838.0259  -600.0226   743.2670 H6            1 RES     
   22509 H6        -839.0212  -600.2308   744.7510 H6            1 RES     
   22510 H6        -839.1414  -602.2562   743.4229 H6            1 RES     
   22511 H6        -840.7614  -601.4716   743.4591 H6            1 RES     
   22512 H6        -838.6888  -601.3420   741.1669 H6            1 RES     
   22513 H6        -840.3129  -600.5500   741.1169 H6            1 RES     
   22514 H6        -839.8157  -603.5481   741.4755 H6            1 RES     
   22515 H6        -841.4379  -602.7648   741.3167 H6            1 RES     
   22516 H6        -840.7619  -601.9528   738.9864 H6            1 RES     
   22517 H6        -839.1757  -602.7655   739.2150 H6            1 RES     
   22518 H6        -841.9313  -604.1610   738.9239 H6            1 RES     
   22519 H6        -840.5270  -604.1423   737.7910 H6            1 RES     
   22520 H6        -840.7099  -605.3991   740.5890 H6            1 RES     
   22521 H6        -839.1641  -605.1712   739.7543 H6            1 RES     
   22522 H6        -839.9157  -607.3466   739.5707 H6            1 RES     
   22523 H6        -842.5167  -606.7174   738.3037 H6            1 RES     
   22524 H6        -841.6962  -608.3157   738.0993 H6            1 RES     
   22525 H6        -841.3650  -608.6335   740.4168 H6            1 RES     
   22526 H6        -842.1467  -607.0105   740.8099 H6            1 RES     
   22527 H6        -843.4606  -609.6588   740.0395 H6            1 RES     
   22528 H6        -844.3293  -608.1035   740.3979 H6            1 RES     
   22529 H6        -842.2581  -609.4524   742.3192 H6            1 RES     
   22530 H6        -843.1668  -607.9359   742.6142 H6            1 RES     
   22531 H6        -845.3031  -609.2274   742.7013 H6            1 RES     
   22532 H6        -844.0766  -609.6402   743.9535 H6            1 RES     
   22533 H6        -843.3605  -611.6513   742.7203 H6            1 RES     
   22534 H6        -844.6096  -611.3291   741.4444 H6            1 RES     
   22535 H6        -845.1081  -611.6901   743.1449 H6            1 RES     
   22536 H6        -838.4579  -606.1875   737.9029 H6            1 RES     
   22537 H6        -839.7976  -606.6852   736.8314 H6            1 RES     
   22538 H6        -838.4905  -607.9500   735.7429 H6            1 RES     
   22539 H6        -836.9376  -608.4460   736.3024 H6            1 RES     
   22540 H6        -839.4561  -610.2683   736.1724 H6            1 RES     
   22541 H6        -837.4432  -611.2325   737.2675 H6            1 RES     
   22542 H6        -838.1008  -612.1941   735.9119 H6            1 RES     
   22543 H6        -836.3023  -611.5419   734.3816 H6            1 RES     
   22544 H6        -835.6862  -610.3420   735.5331 H6            1 RES     
   22545 H6        -834.2110  -612.1982   735.6788 H6            1 RES     
   22546 H6        -835.1634  -612.2026   737.1755 H6            1 RES     
   22547 H6        -836.6195  -614.0341   736.2750 H6            1 RES     
   22548 H6        -834.8856  -614.4692   736.3956 H6            1 RES     
   22549 H6        -836.3682  -613.7256   733.7852 H6            1 RES     
   22550 H6        -835.8627  -615.3555   734.3329 H6            1 RES     
   22551 H6        -833.4498  -614.6464   734.2648 H6            1 RES     
   22552 H6        -834.2705  -614.5005   732.6642 H6            1 RES     
   22553 H6        -833.9555  -613.0274   733.6289 H6            1 RES     
   22554 H6        -839.6131  -609.3789   734.0343 H6            1 RES     
   22555 H6        -838.8274  -610.9672   733.8099 H6            1 RES     
   22556 H6        -836.5788  -609.5729   733.6000 H6            1 RES     
   22557 H6        -837.5826  -608.1168   733.6487 H6            1 RES     
   22558 H6        -836.8775  -608.7942   731.4054 H6            1 RES     
   22559 H6        -837.6590  -610.4042   731.5657 H6            1 RES     
   22560 H6        -839.1567  -607.6865   731.5585 H6            1 RES     
   22561 H6        -839.8985  -609.3240   731.6849 H6            1 RES     
   22562 H6        -838.9971  -609.9249   729.4177 H6            1 RES     
   22563 H6        -840.1364  -608.5320   729.4184 H6            1 RES     
   22564 H6        -837.0610  -608.2964   729.2840 H6            1 RES     
   22565 H6        -838.2203  -606.9198   729.2843 H6            1 RES     
   22566 H6        -837.3132  -607.4783   727.0364 H6            1 RES     
   22567 H6        -837.9720  -609.1485   727.1451 H6            1 RES     
   22568 H6        -840.3084  -608.2024   727.1710 H6            1 RES     
   22569 H6        -839.3825  -607.6496   725.7372 H6            1 RES     
   22570 H6        -839.6180  -606.5260   727.1271 H6            1 RES     
   22571 C0        -845.4701  -602.9574   747.6669 C0            1 RES     
   22572 C0        -845.1917  -602.4961   749.1544 C0            1 RES     
   22573 C0        -843.8642  -602.3426   749.3733 C0            1 RES     
   22574 S1        -843.4806  -601.8151   750.9197 S1            1 RES     
   22575 C0        -845.1065  -601.7459   751.4089 C0            1 RES     
   22576 C0        -845.8992  -602.2256   750.3564 C0            1 RES     
   22577 C0        -843.1430  -602.7553   748.2271 C0            1 RES     
   22578 C0        -843.9924  -603.1174   747.2927 C0            1 RES     
   22579 C0        -843.3105  -603.7380   746.1918 C0            1 RES     
   22580 C0        -841.9465  -603.8055   746.4099 C0            1 RES     
   22581 S1        -841.4046  -603.0396   747.9476 S1            1 RES     
   22582 H2        -846.9475  -602.3188   750.4762 H2            1 RES     
   22583 H2        -843.8008  -604.2082   745.3925 H2            1 RES     
   22584 N3        -847.5079  -600.3294   753.9913 N3            1 RES     
   22585 C0        -847.0159  -600.9240   752.8683 C0            1 RES     
   22586 C0        -845.6277  -601.1729   752.7003 C0            1 RES     
   22587 C0        -844.7905  -600.7823   753.7676 C0            1 RES     
   22588 N3        -843.4420  -600.9446   753.7912 N3            1 RES     
   22589 S1        -843.0295  -600.3127   755.2597 S1            1 RES     
   22590 N3        -844.4665  -599.8198   755.8997 N3            1 RES     
   22591 C0        -845.3491  -600.1652   754.9252 C0            1 RES     
   22592 C0        -846.7119  -599.9426   755.0181 C0            1 RES     
   22593 H4        -847.7209  -601.1665   752.1004 H4            1 RES     
   22594 C5        -844.7546  -594.0873   754.0450 C5            1 RES     
   22595 C5        -844.2315  -595.5189   753.9290 C5            1 RES     
   22596 C5        -845.2241  -596.4709   753.2403 C5            1 RES     
   22597 C5        -845.4712  -596.1298   751.7592 C5            1 RES     
   22598 C5        -846.4359  -597.1391   751.1181 C5            1 RES     
   22599 C5        -846.5754  -596.8973   749.5989 C5            1 RES     
   22600 C5        -847.4903  -597.9079   748.8570 C5            1 RES     
   22601 C5        -847.0922  -599.3464   749.1917 C5            1 RES     
   22602 C5        -847.5973  -600.4746   748.2575 C5            1 RES     
   22603 C5        -849.1289  -600.8523   748.2599 C5            1 RES     
   22604 C5        -849.3983  -601.5935   749.5988 C5            1 RES     
   22605 C5        -850.7088  -602.2262   750.0817 C5            1 RES     
   22606 C5        -850.3559  -602.8509   751.4718 C5            1 RES     
   22607 C5        -851.4632  -603.5734   752.2372 C5            1 RES     
   22608 C5        -851.8645  -604.8981   751.6003 C5            1 RES     
   22609 C5        -846.7654  -600.5827   746.9713 C5            1 RES     
   22610 C0        -846.3823  -602.0764   746.6104 C0            1 RES     
   22611 C5        -846.1117  -602.1708   745.0469 C5            1 RES     
   22612 C5        -846.9155  -603.2370   744.2237 C5            1 RES     
   22613 C5        -846.2608  -604.6483   744.1893 C5            1 RES     
   22614 C5        -845.0507  -604.7900   743.2357 C5            1 RES     
   22615 C5        -844.2619  -606.0989   743.4365 C5            1 RES     
   22616 C5        -844.9828  -607.3783   742.9838 C5            1 RES     
   22617 C5        -845.2802  -607.4494   741.4734 C5            1 RES     
   22618 C5        -844.0209  -607.3608   740.6054 C5            1 RES     
   22619 C5        -847.3409  -602.7311   742.7907 C5            1 RES     
   22620 C5        -846.2571  -602.0117   741.9410 C5            1 RES     
   22621 C5        -846.6613  -601.7514   740.4724 C5            1 RES     
   22622 C5        -847.8842  -600.8323   740.2816 C5            1 RES     
   22623 C5        -848.2071  -600.5574   738.7923 C5            1 RES     
   22624 C5        -847.1260  -599.7246   738.0685 C5            1 RES     
   22625 C5        -847.4323  -599.4561   736.5827 C5            1 RES     
   22626 C5        -848.6755  -598.5971   736.3516 C5            1 RES     
   22627 H6        -844.9045  -593.6313   753.0458 H6            1 RES     
   22628 H6        -844.0159  -593.4678   754.5959 H6            1 RES     
   22629 H6        -845.7140  -594.0754   754.6048 H6            1 RES     
   22630 H6        -843.2616  -595.5201   753.3850 H6            1 RES     
   22631 H6        -844.0481  -595.8972   754.9584 H6            1 RES     
   22632 H6        -844.7931  -597.4958   753.2942 H6            1 RES     
   22633 H6        -846.1845  -596.4711   753.7995 H6            1 RES     
   22634 H6        -844.4939  -596.1657   751.2275 H6            1 RES     
   22635 H6        -845.9004  -595.1127   751.6523 H6            1 RES     
   22636 H6        -846.0080  -598.1495   751.2910 H6            1 RES     
   22637 H6        -847.4306  -597.0794   751.6092 H6            1 RES     
   22638 H6        -846.9484  -595.8683   749.4075 H6            1 RES     
   22639 H6        -845.5566  -596.9769   749.1572 H6            1 RES     
   22640 H6        -848.5589  -597.7586   749.1225 H6            1 RES     
   22641 H6        -847.3661  -597.7175   747.7691 H6            1 RES     
   22642 H6        -847.3980  -599.5510   750.2347 H6            1 RES     
   22643 H6        -845.9799  -599.4055   749.1831 H6            1 RES     
   22644 H6        -847.1977  -601.3089   748.7083 H6            1 RES     
   22645 H6        -849.7621  -599.9512   748.1190 H6            1 RES     
   22646 H6        -849.3415  -601.5735   747.4401 H6            1 RES     
   22647 H6        -848.7472  -602.4857   749.5368 H6            1 RES     
   22648 H6        -849.0972  -600.8914   750.3945 H6            1 RES     
   22649 H6        -851.0457  -603.0087   749.3680 H6            1 RES     
   22650 H6        -851.4993  -601.4557   750.1953 H6            1 RES     
   22651 H6        -849.5037  -603.5637   751.3679 H6            1 RES     
   22652 H6        -850.0136  -602.0256   752.1342 H6            1 RES     
   22653 H6        -852.3397  -602.9062   752.3649 H6            1 RES     
   22654 H6        -851.0585  -603.8128   753.2478 H6            1 RES     
   22655 H6        -850.9790  -605.5668   751.5170 H6            1 RES     
   22656 H6        -852.3047  -604.7371   750.5974 H6            1 RES     
   22657 H6        -852.6121  -605.3988   752.2521 H6            1 RES     
   22658 H6        -845.7886  -600.0604   747.0632 H6            1 RES     
   22659 H6        -847.3468  -600.0469   746.1902 H6            1 RES     
   22660 H6        -846.5157  -601.2257   744.6370 H6            1 RES     
   22661 H6        -845.0394  -602.1044   744.7752 H6            1 RES     
   22662 H6        -847.8801  -603.3736   744.7628 H6            1 RES     
   22663 H6        -845.9807  -604.9075   745.2317 H6            1 RES     
   22664 H6        -847.0214  -605.3891   743.8606 H6            1 RES     
   22665 H6        -845.3713  -604.7173   742.1791 H6            1 RES     
   22666 H6        -844.3498  -603.9523   743.4106 H6            1 RES     
   22667 H6        -843.3005  -606.0188   742.8897 H6            1 RES     
   22668 H6        -844.0000  -606.2118   744.5085 H6            1 RES     
   22669 H6        -845.9305  -607.4928   743.5506 H6            1 RES     
   22670 H6        -844.3313  -608.2408   743.2450 H6            1 RES     
   22671 H6        -845.9897  -606.6506   741.1747 H6            1 RES     
   22672 H6        -845.7689  -608.4265   741.2717 H6            1 RES     
   22673 H6        -843.2974  -608.1553   740.8877 H6            1 RES     
   22674 H6        -844.2951  -607.4920   739.5382 H6            1 RES     
   22675 H6        -843.5337  -606.3688   740.7038 H6            1 RES     
   22676 H6        -848.1574  -601.9884   742.9212 H6            1 RES     
   22677 H6        -847.7713  -603.5903   742.2318 H6            1 RES     
   22678 H6        -845.3330  -602.6020   741.8825 H6            1 RES     
   22679 H6        -845.9840  -601.0465   742.4182 H6            1 RES     
   22680 H6        -845.7791  -601.2844   739.9913 H6            1 RES     
   22681 H6        -846.8542  -602.7238   739.9675 H6            1 RES     
   22682 H6        -847.7208  -599.8632   740.8011 H6            1 RES     
   22683 H6        -848.7683  -601.3279   740.7315 H6            1 RES     
   22684 H6        -848.3612  -601.5213   738.2596 H6            1 RES     
   22685 H6        -849.1636  -599.9911   738.7624 H6            1 RES     
   22686 H6        -846.1633  -600.2726   738.0911 H6            1 RES     
   22687 H6        -846.9886  -598.7544   738.5941 H6            1 RES     
   22688 H6        -846.5640  -598.9129   736.1481 H6            1 RES     
   22689 H6        -847.5410  -600.4191   736.0390 H6            1 RES     
   22690 H6        -849.5912  -599.1122   736.7047 H6            1 RES     
   22691 H6        -848.7907  -598.4055   735.2630 H6            1 RES     
   22692 H6        -848.5728  -597.6210   736.8713 H6            1 RES     
   22693 C0        -850.4276  -598.0658   758.4405 C0            1 RES     
   22694 C0        -849.8404  -598.0272   759.9090 C0            1 RES     
   22695 C0        -848.4934  -598.1649   759.8957 C0            1 RES     
   22696 S1        -847.7819  -598.0955   761.4142 S1            1 RES     
   22697 C0        -849.2648  -597.8609   762.2099 C0            1 RES     
   22698 C0        -850.2884  -597.9303   761.2538 C0            1 RES     
   22699 C0        -848.0545  -598.4132   758.5729 C0            1 RES     
   22700 C0        -849.0901  -598.3885   757.7651 C0            1 RES     
   22701 C0        -848.7269  -598.8394   756.4510 C0            1 RES     
   22702 C0        -847.3918  -599.1946   756.3848 C0            1 RES     
   22703 S1        -846.4778  -598.9229   757.9131 S1            1 RES     
   22704 H2        -851.3029  -597.8643   761.5511 H2            1 RES     
   22705 H2        -849.4189  -599.0129   755.6820 H2            1 RES     
   22706 N3        -850.8997  -596.7004   765.4383 N3            1 RES     
   22707 C0        -850.7176  -597.0878   764.1447 C0            1 RES     
   22708 C0        -849.4550  -597.5289   763.6663 C0            1 RES     
   22709 C0        -848.4054  -597.5558   764.6099 C0            1 RES     
   22710 N3        -847.1344  -597.9526   764.3408 N3            1 RES     
   22711 S1        -846.3841  -597.7700   765.8001 S1            1 RES     
   22712 N3        -847.5720  -597.1994   766.7906 N3            1 RES     
   22713 C0        -848.6420  -597.1434   765.9541 C0            1 RES     
   22714 C0        -849.8967  -596.7141   766.3500 C0            1 RES     
   22715 H4        -851.5636  -597.0137   763.4933 H4            1 RES     
   22716 C5        -846.8991  -591.2311   766.2320 C5            1 RES     
   22717 C5        -846.7170  -592.6630   765.7289 C5            1 RES     
   22718 C5        -847.9807  -593.2353   765.0643 C5            1 RES     
   22719 C5        -848.3652  -592.5143   763.7592 C5            1 RES     
   22720 C5        -849.6071  -593.1573   763.1234 C5            1 RES     
   22721 C5        -849.9145  -592.5411   761.7409 C5            1 RES     
   22722 C5        -851.1235  -593.1701   760.9985 C5            1 RES     
   22723 C5        -850.9971  -594.6938   760.9506 C5            1 RES     
   22724 C5        -851.8639  -595.4614   759.9210 C5            1 RES     
   22725 C5        -853.4233  -595.5546   760.1403 C5            1 RES     
   22726 C5        -853.6441  -596.5337   761.3266 C5            1 RES     
   22727 C5        -854.9735  -597.0235   761.9130 C5            1 RES     
   22728 C5        -854.5609  -598.0124   763.0527 C5            1 RES     
   22729 C5        -855.6716  -598.6906   763.8529 C5            1 RES     
   22730 C5        -856.4362  -599.7348   763.0489 C5            1 RES     
   22731 C5        -851.2737  -595.4048   758.5045 C5            1 RES     
   22732 C0        -851.2762  -596.8133   757.7805 C0            1 RES     
   22733 C5        -851.2660  -596.5795   756.2082 C5            1 RES     
   22734 C5        -852.3917  -597.2619   755.3551 C5            1 RES     
   22735 C5        -852.0661  -598.7168   754.9093 C5            1 RES     
   22736 C5        -851.0687  -598.8376   753.7327 C5            1 RES     
   22737 C5        -850.5571  -600.2740   753.5077 C5            1 RES     
   22738 C5        -851.5935  -601.2627   752.9510 C5            1 RES     
   22739 C5        -852.1189  -600.9198   751.5435 C5            1 RES     
   22740 C5        -851.0122  -600.8494   750.4866 C5            1 RES     
   22741 C5        -852.9060  -596.3636   754.1640 C5            1 RES     
   22742 C5        -851.8312  -595.6643   753.2866 C5            1 RES     
   22743 C5        -852.3828  -594.9959   752.0072 C5            1 RES     
   22744 C5        -853.3955  -593.8582   752.2457 C5            1 RES     
   22745 C5        -853.8685  -593.1852   750.9338 C5            1 RES     
   22746 C5        -852.7535  -592.4070   750.2010 C5            1 RES     
   22747 C5        -853.2113  -591.7438   748.8879 C5            1 RES     
   22748 C5        -854.2624  -590.6505   749.0794 C5            1 RES     
   22749 H6        -847.0940  -590.5318   765.3943 H6            1 RES     
   22750 H6        -845.9720  -590.8994   766.7453 H6            1 RES     
   22751 H6        -847.7403  -591.1848   766.9560 H6            1 RES     
   22752 H6        -845.8610  -592.7048   765.0203 H6            1 RES     
   22753 H6        -846.4686  -593.3012   766.6050 H6            1 RES     
   22754 H6        -847.7756  -594.3028   764.8248 H6            1 RES     
   22755 H6        -848.8256  -593.2001   765.7855 H6            1 RES     
   22756 H6        -847.5076  -592.5934   763.0539 H6            1 RES     
   22757 H6        -848.5781  -591.4419   763.9460 H6            1 RES     
   22758 H6        -849.3843  -594.2388   763.0016 H6            1 RES     
   22759 H6        -850.4824  -593.0428   763.7980 H6            1 RES     
   22760 H6        -850.0831  -591.4471   761.8381 H6            1 RES     
   22761 H6        -849.0129  -592.6905   761.1051 H6            1 RES     
   22762 H6        -852.0843  -592.9035   761.4887 H6            1 RES     
   22763 H6        -851.1236  -592.7515   759.9689 H6            1 RES     
   22764 H6        -851.1821  -595.0835   761.9690 H6            1 RES     
   22765 H6        -849.9369  -594.9431   760.7169 H6            1 RES     
   22766 H6        -851.5898  -596.4356   760.1073 H6            1 RES     
   22767 H6        -853.8630  -594.5494   760.3099 H6            1 RES     
   22768 H6        -853.9038  -596.0118   759.2472 H6            1 RES     
   22769 H6        -853.2152  -597.4855   760.9606 H6            1 RES     
   22770 H6        -853.0858  -596.1046   762.1757 H6            1 RES     
   22771 H6        -855.5715  -597.5426   761.1331 H6            1 RES     
   22772 H6        -855.5554  -596.1759   762.3305 H6            1 RES     
   22773 H6        -853.9057  -598.8179   762.6443 H6            1 RES     
   22774 H6        -853.9562  -597.4411   763.7909 H6            1 RES     
   22775 H6        -856.3565  -597.9300   764.2795 H6            1 RES     
   22776 H6        -855.1826  -599.2303   764.6968 H6            1 RES     
   22777 H6        -855.7363  -600.5090   762.6628 H6            1 RES     
   22778 H6        -856.9750  -599.2656   762.2032 H6            1 RES     
   22779 H6        -857.1689  -600.2370   763.7162 H6            1 RES     
   22780 H6        -850.2052  -595.0987   758.5116 H6            1 RES     
   22781 H6        -851.8360  -594.6055   757.9753 H6            1 RES     
   22782 H6        -851.5148  -595.5084   756.0846 H6            1 RES     
   22783 H6        -850.2565  -596.6393   755.7552 H6            1 RES     
   22784 H6        -853.2728  -597.3516   756.0300 H6            1 RES     
   22785 H6        -851.6971  -599.2612   755.8035 H6            1 RES     
   22786 H6        -853.0075  -599.2134   754.5889 H6            1 RES     
   22787 H6        -851.5188  -598.4610   752.7945 H6            1 RES     
   22788 H6        -850.1870  -598.2015   753.9366 H6            1 RES     
   22789 H6        -849.6923  -600.2359   752.8145 H6            1 RES     
   22790 H6        -850.1699  -600.6824   754.4636 H6            1 RES     
   22791 H6        -852.4494  -601.3407   753.6537 H6            1 RES     
   22792 H6        -851.1100  -602.2629   752.9013 H6            1 RES     
   22793 H6        -852.6775  -599.9613   751.5554 H6            1 RES     
   22794 H6        -852.8295  -601.7198   751.2448 H6            1 RES     
   22795 H6        -850.4416  -601.8023   750.4570 H6            1 RES     
   22796 H6        -851.4626  -600.6732   749.4878 H6            1 RES     
   22797 H6        -850.3151  -600.0103   750.6894 H6            1 RES     
   22798 H6        -853.5166  -595.5421   754.5971 H6            1 RES     
   22799 H6        -853.5878  -596.9765   753.5350 H6            1 RES     
   22800 H6        -851.0736  -596.3761   752.9330 H6            1 RES     
   22801 H6        -851.2907  -594.9032   753.8888 H6            1 RES     
   22802 H6        -851.5022  -594.5898   751.4711 H6            1 RES     
   22803 H6        -852.8515  -595.7713   751.3616 H6            1 RES     
   22804 H6        -852.9538  -593.0843   752.9104 H6            1 RES     
   22805 H6        -854.2887  -594.2838   752.7464 H6            1 RES     
   22806 H6        -854.3020  -593.9527   750.2557 H6            1 RES     
   22807 H6        -854.6756  -592.4696   751.2039 H6            1 RES     
   22808 H6        -851.9376  -593.1045   749.9264 H6            1 RES     
   22809 H6        -852.3358  -591.6289   750.8766 H6            1 RES     
   22810 H6        -852.3209  -591.2736   748.4146 H6            1 RES     
   22811 H6        -853.6024  -592.5157   748.1907 H6            1 RES     
   22812 H6        -855.2046  -591.0661   749.4893 H6            1 RES     
   22813 H6        -854.4935  -590.1887   748.0954 H6            1 RES     
   22814 H6        -853.8779  -589.8593   749.7573 H6            1 RES     
   22815 C0        -852.5783  -595.0832   770.7308 C0            1 RES     
   22816 C0        -851.7861  -595.4980   772.0360 C0            1 RES     
   22817 C0        -850.5168  -595.8623   771.7367 C0            1 RES     
   22818 S1        -849.5905  -596.2813   773.0721 S1            1 RES     
   22819 C0        -850.8549  -595.9865   774.1683 C0            1 RES     
   22820 C0        -851.9993  -595.6465   773.4327 C0            1 RES     
   22821 C0        -850.3413  -595.8622   770.3319 C0            1 RES     
   22822 C0        -851.4554  -595.4654   769.7601 C0            1 RES     
   22823 C0        -851.3951  -595.6476   768.3369 C0            1 RES     
   22824 C0        -850.1916  -596.2050   767.9450 C0            1 RES     
   22825 S1        -849.0251  -596.4686   769.2921 S1            1 RES     
   22826 H2        -852.9210  -595.4764   773.9262 H2            1 RES     
   22827 H2        -852.2140  -595.5095   767.6961 H2            1 RES     
   22828 N3        -851.7089  -595.3584   777.8178 N3            1 RES     
   22829 C0        -851.8068  -595.4531   776.4620 C0            1 RES     
   22830 C0        -850.7525  -595.9819   775.6707 C0            1 RES     
   22831 C0        -849.6053  -596.4156   776.3697 C0            1 RES     
   22832 N3        -848.5025  -596.9534   775.7867 N3            1 RES     
   22833 S1        -847.5234  -597.2569   777.0810 S1            1 RES     
   22834 N3        -848.4022  -596.7390   778.3760 N3            1 RES     
   22835 C0        -849.5471  -596.2995   777.7896 C0            1 RES     
   22836 C0        -850.6085  -595.7637   778.4979 C0            1 RES     
   22837 H4        -852.7041  -595.0794   776.0141 H4            1 RES     
   22838 C5        -846.5595  -591.0217   778.9253 C5            1 RES     
   22839 C5        -846.7640  -592.3022   778.1159 C5            1 RES     
   22840 C5        -848.2047  -592.4698   777.6039 C5            1 RES     
   22841 C5        -848.6147  -591.4036   776.5714 C5            1 RES     
   22842 C5        -850.0454  -591.6495   776.0684 C5            1 RES     
   22843 C5        -850.4147  -590.6784   774.9255 C5            1 RES     
   22844 C5        -851.8263  -590.8914   774.3167 C5            1 RES     
   22845 C5        -852.0369  -592.3580   773.9364 C5            1 RES     
   22846 C5        -853.1901  -592.6950   772.9579 C5            1 RES     
   22847 C5        -854.6835  -592.5631   773.4487 C5            1 RES     
   22848 C5        -854.9307  -593.7418   774.4308 C5            1 RES     
   22849 C5        -856.2325  -594.1162   775.1491 C5            1 RES     
   22850 C5        -855.8771  -595.4041   775.9629 C5            1 RES     
   22851 C5        -856.9763  -596.0476   776.8063 C5            1 RES     
   22852 C5        -858.0566  -596.7205   775.9685 C5            1 RES     
   22853 C5        -852.8173  -592.4078   771.4962 C5            1 RES     
   22854 C0        -853.2276  -593.5812   770.5149 C0            1 RES     
   22855 C5        -853.4000  -592.9860   769.0511 C5            1 RES     
   22856 C5        -854.7589  -593.2383   768.3091 C5            1 RES     
   22857 C5        -854.8213  -594.5795   767.5225 C5            1 RES     
   22858 C5        -854.0577  -594.5900   766.1769 C5            1 RES     
   22859 C5        -853.9038  -595.9986   765.5704 C5            1 RES     
   22860 C5        -855.1981  -596.6295   765.0335 C5            1 RES     
   22861 C5        -855.8401  -595.8755   763.8528 C5            1 RES     
   22862 C5        -854.9124  -595.7510   762.6401 C5            1 RES     
   22863 C5        -855.2395  -592.0070   767.4471 C5            1 RES     
   22864 C5        -854.1817  -591.3186   766.5409 C5            1 RES     
   22865 C5        -854.7606  -590.2795   765.5544 C5            1 RES     
   22866 C5        -855.4601  -589.0718   766.2093 C5            1 RES     
   22867 C5        -855.9668  -588.0343   765.1774 C5            1 RES     
   22868 C5        -854.8320  -587.3119   764.4183 C5            1 RES     
   22869 C5        -855.3264  -586.2861   763.3805 C5            1 RES     
   22870 C5        -856.0795  -585.1029   763.9885 C5            1 RES     
   22871 H6        -846.7220  -590.1204   778.3008 H6            1 RES     
   22872 H6        -845.5175  -590.9891   779.3077 H6            1 RES     
   22873 H6        -847.2550  -591.0021   779.7912 H6            1 RES     
   22874 H6        -846.0510  -592.3237   777.2628 H6            1 RES     
   22875 H6        -846.5311  -593.1636   778.7795 H6            1 RES     
   22876 H6        -848.2702  -593.4688   777.1173 H6            1 RES     
   22877 H6        -848.9066  -592.4596   778.4656 H6            1 RES     
   22878 H6        -847.9077  -591.4618   775.7136 H6            1 RES     
   22879 H6        -848.5636  -590.3860   777.0099 H6            1 RES     
   22880 H6        -850.0793  -592.6929   775.6886 H6            1 RES     
   22881 H6        -850.7664  -591.5470   776.9073 H6            1 RES     
   22882 H6        -850.3294  -589.6267   775.2739 H6            1 RES     
   22883 H6        -849.6699  -590.8280   774.1116 H6            1 RES     
   22884 H6        -852.6247  -590.5848   775.0260 H6            1 RES     
   22885 H6        -851.8890  -590.2469   773.4134 H6            1 RES     
   22886 H6        -852.1484  -592.9398   774.8703 H6            1 RES     
   22887 H6        -851.1009  -592.7263   773.4578 H6            1 RES     
   22888 H6        -853.1060  -593.7181   772.8859 H6            1 RES     
   22889 H6        -854.8682  -591.5660   773.9006 H6            1 RES     
   22890 H6        -855.3771  -592.7036   772.5905 H6            1 RES     
   22891 H6        -854.7739  -594.6393   773.8033 H6            1 RES     
   22892 H6        -854.1745  -593.6312   775.2261 H6            1 RES     
   22893 H6        -857.0361  -594.3222   774.4095 H6            1 RES     
   22894 H6        -856.5516  -593.3037   775.8342 H6            1 RES     
   22895 H6        -855.4768  -596.1915   775.2812 H6            1 RES     
   22896 H6        -855.0620  -595.1395   776.6719 H6            1 RES     
   22897 H6        -857.4122  -595.3024   777.5021 H6            1 RES     
   22898 H6        -856.4949  -596.8494   777.4128 H6            1 RES     
   22899 H6        -857.6032  -597.4910   775.3060 H6            1 RES     
   22900 H6        -858.6016  -595.9770   775.3555 H6            1 RES     
   22901 H6        -858.7729  -597.2306   776.6476 H6            1 RES     
   22902 H6        -851.7190  -592.3041   771.3604 H6            1 RES     
   22903 H6        -853.2676  -591.4199   771.2587 H6            1 RES     
   22904 H6        -853.4296  -591.8897   769.1981 H6            1 RES     
   22905 H6        -852.5049  -593.1123   768.4103 H6            1 RES     
   22906 H6        -855.5292  -593.3300   769.1079 H6            1 RES     
   22907 H6        -854.4491  -595.3767   768.1994 H6            1 RES     
   22908 H6        -855.8837  -594.8130   767.2945 H6            1 RES     
   22909 H6        -854.5504  -593.9286   765.4392 H6            1 RES     
   22910 H6        -853.0402  -594.1851   766.3330 H6            1 RES     
   22911 H6        -853.1629  -595.9490   764.7467 H6            1 RES     
   22912 H6        -853.4760  -596.6837   766.3307 H6            1 RES     
   22913 H6        -855.9375  -596.7212   765.8565 H6            1 RES     
   22914 H6        -854.9524  -597.6580   764.6894 H6            1 RES     
   22915 H6        -856.1729  -594.8648   764.1665 H6            1 RES     
   22916 H6        -856.7414  -596.4446   763.5396 H6            1 RES     
   22917 H6        -854.5695  -596.7544   762.3083 H6            1 RES     
   22918 H6        -855.4573  -595.2666   761.8035 H6            1 RES     
   22919 H6        -854.0300  -595.1195   762.8718 H6            1 RES     
   22920 H6        -855.5896  -591.2180   768.1472 H6            1 RES     
   22921 H6        -856.1218  -592.3238   766.8493 H6            1 RES     
   22922 H6        -853.6545  -592.0474   765.9110 H6            1 RES     
   22923 H6        -853.4082  -590.8291   767.1702 H6            1 RES     
   22924 H6        -853.9025  -589.9183   764.9533 H6            1 RES     
   22925 H6        -855.4742  -590.7849   764.8666 H6            1 RES     
   22926 H6        -854.7700  -588.5676   766.9202 H6            1 RES     
   22927 H6        -856.3397  -589.4410   766.7748 H6            1 RES     
   22928 H6        -856.6496  -588.5306   764.4534 H6            1 RES     
   22929 H6        -856.5534  -587.2733   765.7372 H6            1 RES     
   22930 H6        -854.2337  -588.0560   763.8561 H6            1 RES     
   22931 H6        -854.1626  -586.8021   765.1452 H6            1 RES     
   22932 H6        -854.4360  -585.8804   762.8509 H6            1 RES     
   22933 H6        -855.9720  -586.7896   762.6290 H6            1 RES     
   22934 H6        -857.0176  -585.4325   764.4783 H6            1 RES     
   22935 H6        -856.3493  -584.3875   763.1822 H6            1 RES     
   22936 H6        -855.4389  -584.5753   764.7266 H6            1 RES     
   22937 C0        -852.2025  -594.7765   783.5503 C0            1 RES     
   22938 C0        -851.3334  -595.6215   784.5669 C0            1 RES     
   22939 C0        -850.2296  -596.1208   783.9618 C0            1 RES     
   22940 S1        -849.2275  -597.0005   784.9810 S1            1 RES     
   22941 C0        -850.2236  -596.7579   786.3360 C0            1 RES     
   22942 C0        -851.3647  -596.0579   785.9186 C0            1 RES     
   22943 C0        -850.2677  -595.8177   782.5795 C0            1 RES     
   22944 C0        -851.3432  -595.1076   782.3251 C0            1 RES     
   22945 C0        -851.5341  -594.9542   780.9101 C0            1 RES     
   22946 C0        -850.5489  -595.6045   780.1894 C0            1 RES     
   22947 S1        -849.2799  -596.3805   781.2052 S1            1 RES     
   22948 H2        -852.1455  -595.8512   786.6038 H2            1 RES     
   22949 H2        -852.3900  -594.5267   780.4801 H2            1 RES     
   22950 N3        -850.3749  -596.8751   790.1315 N3            1 RES     
   22951 C0        -850.6900  -596.6264   788.8293 C0            1 RES     
   22952 C0        -849.9018  -597.1284   787.7597 C0            1 RES     
   22953 C0        -848.7834  -597.9097   788.1224 C0            1 RES     
   22954 N3        -847.9195  -598.4781   787.2416 N3            1 RES     
   22955 S1        -846.8477  -599.2470   788.2346 S1            1 RES     
   22956 N3        -847.3944  -598.9059   789.7519 N3            1 RES     
   22957 C0        -848.4927  -598.1462   789.4981 C0            1 RES     
   22958 C0        -849.2985  -597.6166   790.4908 C0            1 RES     
   22959 H4        -851.5428  -596.0058   788.6476 H4            1 RES     
   22960 C5        -844.3120  -593.8964   791.0894 C5            1 RES     
   22961 C5        -844.9027  -594.8918   790.0909 C5            1 RES     
   22962 C5        -846.4054  -594.6780   789.8417 C5            1 RES     
   22963 C5        -846.7260  -593.3422   789.1461 C5            1 RES     
   22964 C5        -848.2344  -593.2072   788.8876 C5            1 RES     
   22965 C5        -848.5523  -591.9432   788.0588 C5            1 RES     
   22966 C5        -850.0509  -591.7549   787.7018 C5            1 RES     
   22967 C5        -850.6238  -593.0289   787.0786 C5            1 RES     
   22968 C5        -851.9540  -592.9166   786.2919 C5            1 RES     
   22969 C5        -853.2954  -592.6457   787.0766 C5            1 RES     
   22970 C5        -853.6409  -593.9618   787.8270 C5            1 RES     
   22971 C5        -854.8720  -594.2622   788.6902 C5            1 RES     
   22972 C5        -854.6838  -595.7483   789.1412 C5            1 RES     
   22973 C5        -855.7582  -596.3711   790.0309 C5            1 RES     
   22974 C5        -857.0689  -596.6257   789.2969 C5            1 RES     
   22975 C5        -851.7485  -592.3602   784.8755 C5            1 RES     
   22976 C0        -852.5404  -593.1764   783.7733 C0            1 RES     
   22977 C5        -852.7959  -592.2298   782.5221 C5            1 RES     
   22978 C5        -854.2716  -592.0566   782.0192 C5            1 RES     
   22979 C5        -854.7347  -593.1403   781.0030 C5            1 RES     
   22980 C5        -854.1983  -592.9644   779.5624 C5            1 RES     
   22981 C5        -854.4403  -594.1931   778.6639 C5            1 RES     
   22982 C5        -855.9043  -594.4418   778.2684 C5            1 RES     
   22983 C5        -856.5375  -593.3285   777.4115 C5            1 RES     
   22984 C5        -855.7942  -593.0839   776.0945 C5            1 RES     
   22985 C5        -854.6000  -590.5912   781.5344 C5            1 RES     
   22986 C5        -853.5652  -589.9034   780.6015 C5            1 RES     
   22987 C5        -854.0478  -588.5749   779.9770 C5            1 RES     
   22988 C5        -854.3686  -587.4541   780.9857 C5            1 RES     
   22989 C5        -854.7886  -586.1289   780.3035 C5            1 RES     
   22990 C5        -853.6504  -585.4571   779.5039 C5            1 RES     
   22991 C5        -854.0619  -584.1439   778.8112 C5            1 RES     
   22992 C5        -854.4465  -583.0260   779.7803 C5            1 RES     
   22993 H6        -844.3686  -592.8585   790.7044 H6            1 RES     
   22994 H6        -843.2424  -594.1386   791.2632 H6            1 RES     
   22995 H6        -844.8516  -593.9616   792.0582 H6            1 RES     
   22996 H6        -844.3448  -594.8345   789.1307 H6            1 RES     
   22997 H6        -844.7639  -595.9132   790.5080 H6            1 RES     
   22998 H6        -846.7540  -595.5055   789.1838 H6            1 RES     
   22999 H6        -846.9538  -594.7501   790.8057 H6            1 RES     
   23000 H6        -846.1824  -593.3178   788.1750 H6            1 RES     
   23001 H6        -846.3944  -592.4831   789.7643 H6            1 RES     
   23002 H6        -848.5462  -594.1079   788.3172 H6            1 RES     
   23003 H6        -848.7849  -593.1823   789.8523 H6            1 RES     
   23004 H6        -848.1937  -591.0360   788.5910 H6            1 RES     
   23005 H6        -847.9853  -592.0232   787.1041 H6            1 RES     
   23006 H6        -850.6516  -591.4906   788.5985 H6            1 RES     
   23007 H6        -850.1071  -590.9135   786.9779 H6            1 RES     
   23008 H6        -850.7179  -593.7872   787.8783 H6            1 RES     
   23009 H6        -849.8693  -593.4310   786.3646 H6            1 RES     
   23010 H6        -852.1020  -593.8917   785.9984 H6            1 RES     
   23011 H6        -853.1940  -591.7679   787.7488 H6            1 RES     
   23012 H6        -854.1220  -592.4546   786.3571 H6            1 RES     
   23013 H6        -853.7741  -594.6977   787.0118 H6            1 RES     
   23014 H6        -852.7696  -594.1776   788.4680 H6            1 RES     
   23015 H6        -855.8013  -594.1427   788.0924 H6            1 RES     
   23016 H6        -854.9053  -593.5927   789.5746 H6            1 RES     
   23017 H6        -854.5662  -596.4088   788.2496 H6            1 RES     
   23018 H6        -853.7354  -595.8067   789.7193 H6            1 RES     
   23019 H6        -855.9171  -595.7480   790.9342 H6            1 RES     
   23020 H6        -855.3751  -597.3655   790.3576 H6            1 RES     
   23021 H6        -856.8936  -597.2840   788.4170 H6            1 RES     
   23022 H6        -857.5269  -595.6743   788.9642 H6            1 RES     
   23023 H6        -857.7694  -597.1490   789.9825 H6            1 RES     
   23024 H6        -850.6858  -592.4212   784.5554 H6            1 RES     
   23025 H6        -852.0073  -591.2810   784.9350 H6            1 RES     
   23026 H6        -852.5685  -591.2120   782.8921 H6            1 RES     
   23027 H6        -852.0532  -592.3550   781.7094 H6            1 RES     
   23028 H6        -854.9171  -592.1991   782.9152 H6            1 RES     
   23029 H6        -854.4457  -594.1279   781.4192 H6            1 RES     
   23030 H6        -855.8443  -593.1232   780.9404 H6            1 RES     
   23031 H6        -854.6417  -592.0709   779.0834 H6            1 RES     
   23032 H6        -853.1062  -592.7928   779.5994 H6            1 RES     
   23033 H6        -853.8359  -594.0798   777.7410 H6            1 RES     
   23034 H6        -854.0612  -595.1032   779.1724 H6            1 RES     
   23035 H6        -856.5163  -594.5954   779.1818 H6            1 RES     
   23036 H6        -855.9376  -595.3858   777.6816 H6            1 RES     
   23037 H6        -856.5966  -592.3790   777.9823 H6            1 RES     
   23038 H6        -857.5757  -593.6400   777.1679 H6            1 RES     
   23039 H6        -855.7264  -594.0238   775.5059 H6            1 RES     
   23040 H6        -856.3404  -592.3269   775.4945 H6            1 RES     
   23041 H6        -854.7729  -592.6900   776.2762 H6            1 RES     
   23042 H6        -854.6660  -589.9424   782.4344 H6            1 RES     
   23043 H6        -855.6079  -590.5974   781.0653 H6            1 RES     
   23044 H6        -853.3049  -590.5425   779.7473 H6            1 RES     
   23045 H6        -852.6207  -589.7207   781.1569 H6            1 RES     
   23046 H6        -853.2309  -588.2373   779.3087 H6            1 RES     
   23047 H6        -854.9465  -588.7694   779.3507 H6            1 RES     
   23048 H6        -853.4894  -587.2621   781.6384 H6            1 RES     
   23049 H6        -855.2133  -587.7871   781.6223 H6            1 RES     
   23050 H6        -855.6609  -586.3116   779.6383 H6            1 RES     
   23051 H6        -855.1097  -585.4321   781.1084 H6            1 RES     
   23052 H6        -853.3148  -586.1393   778.6980 H6            1 RES     
   23053 H6        -852.7877  -585.2599   780.1772 H6            1 RES     
   23054 H6        -853.1936  -583.7864   778.2145 H6            1 RES     
   23055 H6        -854.9039  -584.3334   778.1111 H6            1 RES     
   23056 H6        -855.3505  -583.2929   780.3634 H6            1 RES     
   23057 H6        -854.6733  -582.1036   779.2035 H6            1 RES     
   23058 H6        -853.6062  -582.8094   780.4734 H6            1 RES     
   23059 C0        -849.8806  -597.5945   795.8483 C0            1 RES     
   23060 C0        -849.0717  -598.7956   796.4856 C0            1 RES     
   23061 C0        -848.2020  -599.3222   795.5912 C0            1 RES     
   23062 S1        -847.2717  -600.5803   796.1983 S1            1 RES     
   23063 C0        -847.9816  -600.4959   797.7399 C0            1 RES     
   23064 C0        -848.9956  -599.5281   797.7005 C0            1 RES     
   23065 C0        -848.3781  -598.6976   794.3331 C0            1 RES     
   23066 C0        -849.3025  -597.7703   794.4397 C0            1 RES     
   23067 C0        -849.6631  -597.2542   793.1491 C0            1 RES     
   23068 C0        -848.9571  -597.8767   792.1357 C0            1 RES     
   23069 S1        -847.7474  -599.0818   792.7096 S1            1 RES     
   23070 H2        -849.6042  -599.3567   798.5503 H2            1 RES     
   23071 H2        -850.4617  -596.5936   792.9875 H2            1 RES     
   23072 N3        -847.5922  -601.4831   801.3890 N3            1 RES     
   23073 C0        -848.0356  -600.8809   800.2499 C0            1 RES     
   23074 C0        -847.5397  -601.2445   798.9696 C0            1 RES     
   23075 C0        -846.5731  -602.2729   798.9442 C0            1 RES     
   23076 N3        -845.9904  -602.7581   797.8170 N3            1 RES     
   23077 S1        -844.9731  -603.9163   798.4082 S1            1 RES     
   23078 N3        -845.2041  -603.8552   800.0393 N3            1 RES     
   23079 C0        -846.1397  -602.8766   800.1610 C0            1 RES     
   23080 C0        -846.6581  -602.4654   801.3765 C0            1 RES     
   23081 H4        -848.7534  -600.0955   800.3653 H4            1 RES     
   23082 C5        -840.9594  -599.9262   801.7515 C5            1 RES     
   23083 C5        -841.8900  -600.5366   800.7036 C5            1 RES     
   23084 C5        -843.3323  -600.0100   800.7962 C5            1 RES     
   23085 C5        -843.4591  -598.5124   800.4618 C5            1 RES     
   23086 C5        -844.9250  -598.0578   800.5306 C5            1 RES     
   23087 C5        -845.0843  -596.5975   800.0532 C5            1 RES     
   23088 C5        -846.5439  -596.0704   800.0363 C5            1 RES     
   23089 C5        -847.4615  -597.0394   799.2886 C5            1 RES     
   23090 C5        -848.8382  -596.5122   798.8114 C5            1 RES     
   23091 C5        -849.9598  -596.2049   799.8772 C5            1 RES     
   23092 C5        -850.4639  -597.5801   800.3961 C5            1 RES     
   23093 C5        -851.5893  -597.8567   801.4000 C5            1 RES     
   23094 C5        -851.6586  -599.4167   801.4944 C5            1 RES     
   23095 C5        -852.6978  -600.0349   802.4279 C5            1 RES     
   23096 C5        -854.1264  -599.8743   801.9230 C5            1 RES     
   23097 C5        -848.7301  -595.6802   797.5253 C5            1 RES     
   23098 C0        -849.8320  -596.0594   796.4530 C0            1 RES     
   23099 C5        -850.0612  -594.8131   795.4934 C5            1 RES     
   23100 C5        -851.5236  -594.2697   795.3289 C5            1 RES     
   23101 C5        -852.3524  -594.9827   794.2216 C5            1 RES     
   23102 C5        -852.0096  -594.5663   792.7714 C5            1 RES     
   23103 C5        -852.6386  -595.4845   791.7051 C5            1 RES     
   23104 C5        -854.1639  -595.3718   791.5557 C5            1 RES     
   23105 C5        -854.6641  -593.9936   791.0812 C5            1 RES     
   23106 C5        -854.0885  -593.5772   789.7239 C5            1 RES     
   23107 C5        -851.5991  -592.6969   795.2248 C5            1 RES     
   23108 C5        -850.5907  -591.9993   794.2706 C5            1 RES     
   23109 C5        -850.8651  -590.4971   794.0340 C5            1 RES     
   23110 C5        -850.7863  -589.6097   795.2921 C5            1 RES     
   23111 C5        -851.0094  -588.1079   794.9874 C5            1 RES     
   23112 C5        -849.8849  -587.4754   794.1381 C5            1 RES     
   23113 C5        -850.1040  -585.9841   793.8193 C5            1 RES     
   23114 C5        -850.0933  -585.0788   795.0510 C5            1 RES     
   23115 H6        -840.8491  -598.8331   801.6040 H6            1 RES     
   23116 H6        -839.9526  -600.3862   801.6639 H6            1 RES     
   23117 H6        -841.3513  -600.1242   802.7719 H6            1 RES     
   23118 H6        -841.4808  -600.3515   799.6864 H6            1 RES     
   23119 H6        -841.9126  -601.6359   800.8696 H6            1 RES     
   23120 H6        -843.9428  -600.5834   800.0630 H6            1 RES     
   23121 H6        -843.7348  -600.2119   801.8123 H6            1 RES     
   23122 H6        -843.0723  -598.3536   799.4301 H6            1 RES     
   23123 H6        -842.8639  -597.8965   801.1666 H6            1 RES     
   23124 H6        -845.5028  -598.7283   799.8594 H6            1 RES     
   23125 H6        -845.3088  -598.1668   801.5674 H6            1 RES     
   23126 H6        -844.4656  -595.9200   800.6799 H6            1 RES     
   23127 H6        -844.6949  -596.5465   799.0114 H6            1 RES     
   23128 H6        -846.9351  -595.9258   801.0662 H6            1 RES     
   23129 H6        -846.5253  -595.0847   799.5232 H6            1 RES     
   23130 H6        -847.5963  -597.9373   799.9200 H6            1 RES     
   23131 H6        -846.9243  -597.3861   798.3765 H6            1 RES     
   23132 H6        -849.2329  -597.3483   798.3596 H6            1 RES     
   23133 H6        -849.5749  -595.5436   800.6818 H6            1 RES     
   23134 H6        -850.8234  -595.7066   799.3840 H6            1 RES     
   23135 H6        -850.8701  -598.0663   799.4893 H6            1 RES     
   23136 H6        -849.5739  -598.0911   800.8004 H6            1 RES     
   23137 H6        -852.5495  -597.4377   801.0287 H6            1 RES     
   23138 H6        -851.3479  -597.4213   802.3917 H6            1 RES     
   23139 H6        -851.8178  -599.8565   800.4814 H6            1 RES     
   23140 H6        -850.6698  -599.7759   801.8556 H6            1 RES     
   23141 H6        -852.5847  -599.6263   803.4525 H6            1 RES     
   23142 H6        -852.4921  -601.1297   802.4657 H6            1 RES     
   23143 H6        -854.2277  -600.3250   800.9106 H6            1 RES     
   23144 H6        -854.4144  -598.8060   801.8851 H6            1 RES     
   23145 H6        -854.8133  -600.4145   802.6091 H6            1 RES     
   23146 H6        -847.7641  -595.8485   797.0017 H6            1 RES     
   23147 H6        -848.7406  -594.6178   797.8517 H6            1 RES     
   23148 H6        -849.5695  -593.9684   796.0121 H6            1 RES     
   23149 H6        -849.4908  -594.8697   794.5451 H6            1 RES     
   23150 H6        -852.0450  -594.5057   796.2841 H6            1 RES     
   23151 H6        -852.2229  -596.0758   794.3647 H6            1 RES     
   23152 H6        -853.4295  -594.7572   794.3779 H6            1 RES     
   23153 H6        -852.3177  -593.5212   792.5784 H6            1 RES     
   23154 H6        -850.9129  -594.6024   792.6323 H6            1 RES     
   23155 H6        -852.1671  -595.2628   790.7261 H6            1 RES     
   23156 H6        -852.3920  -596.5412   791.9353 H6            1 RES     
   23157 H6        -854.6529  -595.6283   792.5188 H6            1 RES     
   23158 H6        -854.4845  -596.1285   790.8066 H6            1 RES     
   23159 H6        -854.4338  -593.2116   791.8337 H6            1 RES     
   23160 H6        -855.7692  -594.0516   790.9830 H6            1 RES     
   23161 H6        -854.3108  -594.3473   788.9545 H6            1 RES     
   23162 H6        -854.5428  -592.6157   789.4067 H6            1 RES     
   23163 H6        -852.9913  -593.4229   789.7825 H6            1 RES     
   23164 H6        -851.3913  -592.2792   796.2335 H6            1 RES     
   23165 H6        -852.6430  -592.4149   794.9666 H6            1 RES     
   23166 H6        -850.6020  -592.4526   793.2704 H6            1 RES     
   23167 H6        -849.5575  -592.1221   794.6597 H6            1 RES     
   23168 H6        -850.1027  -590.1589   793.3044 H6            1 RES     
   23169 H6        -851.8670  -590.3769   793.5656 H6            1 RES     
   23170 H6        -849.7999  -589.7352   795.7892 H6            1 RES     
   23171 H6        -851.5792  -589.9312   795.9976 H6            1 RES     
   23172 H6        -851.9891  -587.9717   794.4790 H6            1 RES     
   23173 H6        -851.0518  -587.5772   795.9636 H6            1 RES     
   23174 H6        -849.8256  -587.9945   793.1611 H6            1 RES     
   23175 H6        -848.9102  -587.5980   794.6591 H6            1 RES     
   23176 H6        -849.2772  -585.6528   793.1525 H6            1 RES     
   23177 H6        -851.0610  -585.8514   793.2702 H6            1 RES     
   23178 H6        -850.9372  -585.3141   795.7300 H6            1 RES     
   23179 H6        -850.2004  -584.0208   794.7285 H6            1 RES     
   23180 H6        -849.1331  -585.1837   795.5993 H6            1 RES     
   23181 C0        -846.4242  -603.6150   806.6363 C0            1 RES     
   23182 C0        -845.8056  -605.0556   806.8485 C0            1 RES     
   23183 C0        -845.2103  -605.4986   805.7158 C0            1 RES     
   23184 S1        -844.4912  -607.0078   805.8640 S1            1 RES     
   23185 C0        -844.9310  -607.1691   807.4974 C0            1 RES     
   23186 C0        -845.7092  -606.0575   807.8512 C0            1 RES     
   23187 C0        -845.4328  -604.5721   804.6688 C0            1 RES     
   23188 C0        -846.1116  -603.5496   805.1372 C0            1 RES     
   23189 C0        -846.5401  -602.6867   804.0723 C0            1 RES     
   23190 C0        -846.1411  -603.1644   802.8373 C0            1 RES     
   23191 S1        -845.1457  -604.6640   802.9108 S1            1 RES     
   23192 H2        -846.1348  -605.9890   808.8187 H2            1 RES     
   23193 H2        -847.1940  -601.8773   804.2049 H2            1 RES     
   23194 N3        -844.2269  -609.0473   810.7253 N3            1 RES     
   23195 C0        -844.6947  -608.1237   809.8392 C0            1 RES     
   23196 C0        -844.4826  -608.2537   808.4409 C0            1 RES     
   23197 C0        -843.7728  -609.3996   808.0217 C0            1 RES     
   23198 N3        -843.4802  -609.6974   806.7290 N3            1 RES     
   23199 S1        -842.6580  -611.1227   806.8656 S1            1 RES     
   23200 N3        -842.6271  -611.4113   808.4884 N3            1 RES     
   23201 C0        -843.3035  -610.3414   808.9839 C0            1 RES     
   23202 C0        -843.5367  -610.1464   810.3341 C0            1 RES     
   23203 H4        -845.2030  -607.2750   810.2477 H4            1 RES     
   23204 C5        -837.4357  -608.8073   810.1174 C5            1 RES     
   23205 C5        -838.6195  -608.9787   809.1657 C5            1 RES     
   23206 C5        -839.8860  -608.2450   809.6385 C5            1 RES     
   23207 C5        -839.7378  -606.7124   809.6466 C5            1 RES     
   23208 C5        -841.0461  -606.0377   810.0864 C5            1 RES     
   23209 C5        -840.9585  -604.5011   809.9559 C5            1 RES     
   23210 C5        -842.2578  -603.7379   810.3270 C5            1 RES     
   23211 C5        -843.4614  -604.3254   809.5880 C5            1 RES     
   23212 C5        -844.7486  -603.4673   809.5014 C5            1 RES     
   23213 C5        -845.6086  -603.2305   810.8024 C5            1 RES     
   23214 C5        -846.3126  -604.5794   811.1174 C5            1 RES     
   23215 C5        -847.3103  -604.8851   812.2409 C5            1 RES     
   23216 C5        -847.6966  -606.3859   812.0273 C5            1 RES     
   23217 C5        -848.6944  -607.0164   812.9972 C5            1 RES     
   23218 C5        -850.1142  -606.4929   812.8191 C5            1 RES     
   23219 C5        -844.6563  -602.3858   808.4152 C5            1 RES     
   23220 C0        -845.9599  -602.3004   807.5199 C0            1 RES     
   23221 C5        -846.0566  -600.8415   806.8963 C5            1 RES     
   23222 C5        -847.3770  -600.0272   807.1296 C5            1 RES     
   23223 C5        -848.4932  -600.3002   806.0805 C5            1 RES     
   23224 C5        -848.2875  -599.6180   804.7071 C5            1 RES     
   23225 C5        -849.2485  -600.1318   803.6172 C5            1 RES     
   23226 C5        -850.7195  -599.7215   803.7894 C5            1 RES     
   23227 C5        -850.9780  -598.2044   803.7102 C5            1 RES     
   23228 C5        -850.5337  -597.5849   802.3814 C5            1 RES     
   23229 C5        -847.1292  -598.4865   807.3643 C5            1 RES     
   23230 C5        -846.1472  -597.7699   806.3966 C5            1 RES     
   23231 C5        -846.1261  -596.2303   806.5278 C5            1 RES     
   23232 C5        -845.6746  -595.6951   807.9013 C5            1 RES     
   23233 C5        -845.6141  -594.1488   807.9572 C5            1 RES     
   23234 C5        -844.5185  -593.5396   807.0548 C5            1 RES     
   23235 C5        -844.4584  -592.0005   807.0942 C5            1 RES     
   23236 C5        -844.0727  -591.4301   808.4590 C5            1 RES     
   23237 H6        -837.1173  -607.7472   810.1771 H6            1 RES     
   23238 H6        -836.5746  -609.4023   809.7464 H6            1 RES     
   23239 H6        -837.7057  -609.1702   811.1319 H6            1 RES     
   23240 H6        -838.3350  -608.6318   808.1482 H6            1 RES     
   23241 H6        -838.8518  -610.0645   809.1056 H6            1 RES     
   23242 H6        -840.7065  -608.5117   808.9351 H6            1 RES     
   23243 H6        -840.1678  -608.6087   810.6502 H6            1 RES     
   23244 H6        -839.4828  -606.3833   808.6142 H6            1 RES     
   23245 H6        -838.9274  -606.3955   810.3344 H6            1 RES     
   23246 H6        -841.8466  -606.4177   809.4164 H6            1 RES     
   23247 H6        -841.2869  -606.3209   811.1333 H6            1 RES     
   23248 H6        -840.1236  -604.1110   810.5767 H6            1 RES     
   23249 H6        -840.7253  -604.2731   808.8914 H6            1 RES     
   23250 H6        -842.4525  -603.7759   811.4203 H6            1 RES     
   23251 H6        -842.1050  -602.6775   810.0315 H6            1 RES     
   23252 H6        -843.6901  -605.3098   810.0374 H6            1 RES     
   23253 H6        -843.1514  -604.5341   808.5387 H6            1 RES     
   23254 H6        -845.3751  -604.0897   808.9731 H6            1 RES     
   23255 H6        -844.9768  -602.8572   811.6356 H6            1 RES     
   23256 H6        -846.4090  -602.4860   810.5960 H6            1 RES     
   23257 H6        -846.9428  -604.7574   810.2258 H6            1 RES     
   23258 H6        -845.5027  -605.3196   811.2308 H6            1 RES     
   23259 H6        -848.2028  -604.2284   812.1539 H6            1 RES     
   23260 H6        -846.8376  -604.7469   813.2353 H6            1 RES     
   23261 H6        -848.0940  -606.5376   810.9958 H6            1 RES     
   23262 H6        -846.7652  -606.9880   812.1112 H6            1 RES     
   23263 H6        -848.3465  -606.8892   814.0423 H6            1 RES     
   23264 H6        -848.7241  -608.1074   812.7711 H6            1 RES     
   23265 H6        -850.4579  -606.6652   811.7749 H6            1 RES     
   23266 H6        -850.1696  -605.4127   813.0555 H6            1 RES     
   23267 H6        -850.7916  -607.0516   813.4997 H6            1 RES     
   23268 H6        -843.8369  -602.5913   807.6929 H6            1 RES     
   23269 H6        -844.3913  -601.4464   808.9468 H6            1 RES     
   23270 H6        -845.3246  -600.2437   807.4719 H6            1 RES     
   23271 H6        -845.6579  -600.7702   805.8649 H6            1 RES     
   23272 H6        -847.7899  -600.3883   808.0987 H6            1 RES     
   23273 H6        -848.5807  -601.4013   805.9705 H6            1 RES     
   23274 H6        -849.4621  -599.9333   806.4831 H6            1 RES     
   23275 H6        -848.3901  -598.5196   804.7937 H6            1 RES     
   23276 H6        -847.2566  -599.8114   804.3558 H6            1 RES     
   23277 H6        -848.8904  -599.7700   802.6319 H6            1 RES     
   23278 H6        -849.2022  -601.2393   803.5758 H6            1 RES     
   23279 H6        -851.1042  -600.1098   804.7557 H6            1 RES     
   23280 H6        -851.3014  -600.2104   802.9777 H6            1 RES     
   23281 H6        -850.4775  -597.6763   804.5477 H6            1 RES     
   23282 H6        -852.0720  -598.0430   803.8163 H6            1 RES     
   23283 H6        -851.0266  -598.0990   801.5287 H6            1 RES     
   23284 H6        -850.8138  -596.5114   802.3598 H6            1 RES     
   23285 H6        -849.4325  -597.6435   802.2586 H6            1 RES     
   23286 H6        -846.6902  -598.3634   808.3779 H6            1 RES     
   23287 H6        -848.1151  -597.9729   807.3741 H6            1 RES     
   23288 H6        -846.4027  -597.9634   805.3463 H6            1 RES     
   23289 H6        -845.1183  -598.1605   806.5470 H6            1 RES     
   23290 H6        -845.4254  -595.8673   805.7499 H6            1 RES     
   23291 H6        -847.1371  -595.8287   806.2949 H6            1 RES     
   23292 H6        -844.6754  -596.1058   808.1637 H6            1 RES     
   23293 H6        -846.4047  -596.0310   808.6653 H6            1 RES     
   23294 H6        -846.6062  -593.7263   807.6849 H6            1 RES     
   23295 H6        -845.3974  -593.8661   809.0106 H6            1 RES     
   23296 H6        -844.7164  -593.8139   805.9997 H6            1 RES     
   23297 H6        -843.5265  -593.9511   807.3430 H6            1 RES     
   23298 H6        -843.6877  -591.6704   806.3629 H6            1 RES     
   23299 H6        -845.4353  -591.5758   806.7777 H6            1 RES     
   23300 H6        -844.8376  -591.6684   809.2249 H6            1 RES     
   23301 H6        -843.9977  -590.3238   808.3853 H6            1 RES     
   23302 H6        -843.0870  -591.8287   808.7798 H6            1 RES     
   23303 C0        -842.7796  -612.5353   815.1050 C0            1 RES     
   23304 C0        -842.4588  -614.0704   814.8968 C0            1 RES     
   23305 C0        -842.1459  -614.3289   813.6050 C0            1 RES     
   23306 S1        -841.7521  -615.9320   813.3022 S1            1 RES     
   23307 C0        -841.9700  -616.3971   814.9219 C0            1 RES     
   23308 C0        -842.4316  -615.2828   815.6371 C0            1 RES     
   23309 C0        -842.3174  -613.1559   812.8310 C0            1 RES     
   23310 C0        -842.6852  -612.1714   813.6192 C0            1 RES     
   23311 C0        -843.0718  -611.0189   812.8546 C0            1 RES     
   23312 C0        -842.9710  -611.2519   811.4951 C0            1 RES     
   23313 S1        -842.3194  -612.8764   811.0695 S1            1 RES     
   23314 H2        -842.6851  -615.3726   816.6616 H2            1 RES     
   23315 H2        -843.5108  -610.1626   813.2721 H2            1 RES     
   23316 N3        -841.2147  -619.0817   817.5035 N3            1 RES     
   23317 C0        -841.6000  -617.9069   816.9306 C0            1 RES     
   23318 C0        -841.6295  -617.7361   815.5209 C0            1 RES     
   23319 C0        -841.2508  -618.8557   814.7490 C0            1 RES     
   23320 N3        -841.2228  -618.8843   813.3912 N3            1 RES     
   23321 S1        -840.7133  -620.4225   813.0745 S1            1 RES     
   23322 N3        -840.5054  -621.0892   814.5678 N3            1 RES     
   23323 C0        -840.8568  -620.0662   815.3911 C0            1 RES     
   23324 C0        -840.8409  -620.1598   816.7718 C0            1 RES     
   23325 H4        -841.8491  -617.1040   817.5930 H4            1 RES     
   23326 C5        -834.6951  -619.8973   815.6656 C5            1 RES     
   23327 C5        -836.0155  -619.6276   814.9441 C5            1 RES     
   23328 C5        -837.0119  -618.8171   815.7905 C5            1 RES     
   23329 C5        -836.5401  -617.3806   816.0817 C5            1 RES     
   23330 C5        -837.5943  -616.6114   816.8924 C5            1 RES     
   23331 C5        -837.2006  -615.1276   817.0629 C5            1 RES     
   23332 C5        -838.2374  -614.2590   817.8239 C5            1 RES     
   23333 C5        -839.6343  -614.4341   817.2258 C5            1 RES     
   23334 C5        -840.7068  -613.3682   817.5643 C5            1 RES     
   23335 C5        -841.2945  -613.3004   819.0266 C5            1 RES     
   23336 C5        -842.2161  -614.5408   819.1896 C5            1 RES     
   23337 C5        -843.0789  -614.9250   820.3974 C5            1 RES     
   23338 C5        -843.8042  -616.2406   819.9610 C5            1 RES     
   23339 C5        -844.7592  -616.8987   820.9553 C5            1 RES     
   23340 C5        -846.0447  -616.1076   821.1634 C5            1 RES     
   23341 C5        -840.5470  -612.0929   816.7239 C5            1 RES     
   23342 C0        -841.9198  -611.5705   816.1319 C0            1 RES     
   23343 C5        -841.7936  -610.0114   815.8487 C5            1 RES     
   23344 C5        -842.8601  -609.0577   816.4917 C5            1 RES     
   23345 C5        -844.1514  -608.8738   815.6431 C5            1 RES     
   23346 C5        -844.0097  -607.9317   814.4239 C5            1 RES     
   23347 C5        -845.2086  -607.9954   813.4573 C5            1 RES     
   23348 C5        -846.5159  -607.3868   813.9885 C5            1 RES     
   23349 C5        -846.4530  -605.8732   814.2708 C5            1 RES     
   23350 C5        -846.0878  -605.0434   813.0359 C5            1 RES     
   23351 C5        -842.2569  -607.6847   816.9830 C5            1 RES     
   23352 C5        -841.2985  -606.9421   816.0114 C5            1 RES     
   23353 C5        -840.9297  -605.5059   816.4467 C5            1 RES     
   23354 C5        -840.1764  -605.3999   817.7876 C5            1 RES     
   23355 C5        -839.7793  -603.9463   818.1444 C5            1 RES     
   23356 C5        -838.7244  -603.3417   817.1918 C5            1 RES     
   23357 C5        -838.3317  -601.8911   817.5314 C5            1 RES     
   23358 C5        -837.6358  -601.7378   818.8838 C5            1 RES     
   23359 H6        -834.1523  -618.9543   815.8776 H6            1 RES     
   23360 H6        -834.0455  -620.5284   815.0231 H6            1 RES     
   23361 H6        -834.8835  -620.4377   816.6176 H6            1 RES     
   23362 H6        -835.8169  -619.1043   813.9833 H6            1 RES     
   23363 H6        -836.4807  -620.6101   814.7100 H6            1 RES     
   23364 H6        -837.9651  -618.7612   815.2182 H6            1 RES     
   23365 H6        -837.2123  -619.3557   816.7418 H6            1 RES     
   23366 H6        -836.3760  -616.8656   815.1086 H6            1 RES     
   23367 H6        -835.5882  -617.3832   816.6510 H6            1 RES     
   23368 H6        -838.5474  -616.6752   816.3254 H6            1 RES     
   23369 H6        -837.7327  -617.0885   817.8860 H6            1 RES     
   23370 H6        -836.2193  -615.0486   817.5782 H6            1 RES     
   23371 H6        -837.0840  -614.6977   816.0426 H6            1 RES     
   23372 H6        -838.2721  -614.5209   818.9032 H6            1 RES     
   23373 H6        -837.9068  -613.2024   817.7267 H6            1 RES     
   23374 H6        -839.9993  -615.4413   817.5008 H6            1 RES     
   23375 H6        -839.5346  -614.4384   816.1164 H6            1 RES     
   23376 H6        -841.5229  -613.7276   817.0507 H6            1 RES     
   23377 H6        -840.4816  -613.2522   819.7813 H6            1 RES     
   23378 H6        -841.9388  -612.3998   819.1335 H6            1 RES     
   23379 H6        -842.9944  -614.3887   818.4182 H6            1 RES     
   23380 H6        -841.5754  -615.4167   818.9923 H6            1 RES     
   23381 H6        -843.8133  -614.1206   820.6188 H6            1 RES     
   23382 H6        -842.4460  -615.1120   821.2895 H6            1 RES     
   23383 H6        -844.3727  -616.0709   819.0161 H6            1 RES     
   23384 H6        -843.0211  -616.9989   819.7403 H6            1 RES     
   23385 H6        -844.2417  -617.0863   821.9179 H6            1 RES     
   23386 H6        -845.0545  -617.8822   820.5219 H6            1 RES     
   23387 H6        -846.5677  -615.9640   820.1917 H6            1 RES     
   23388 H6        -845.8325  -615.1219   821.6208 H6            1 RES     
   23389 H6        -846.7178  -616.6845   821.8331 H6            1 RES     
   23390 H6        -839.9063  -612.2612   815.8313 H6            1 RES     
   23391 H6        -840.0118  -611.3681   817.3746 H6            1 RES     
   23392 H6        -840.8740  -609.7052   816.3825 H6            1 RES     
   23393 H6        -841.5457  -609.7681   814.7964 H6            1 RES     
   23394 H6        -843.1929  -609.5605   817.4278 H6            1 RES     
   23395 H6        -844.4873  -609.8844   815.3302 H6            1 RES     
   23396 H6        -844.9491  -608.4492   816.2902 H6            1 RES     
   23397 H6        -843.8613  -606.8848   814.7503 H6            1 RES     
   23398 H6        -843.1074  -608.2136   813.8494 H6            1 RES     
   23399 H6        -844.9310  -607.4784   812.5163 H6            1 RES     
   23400 H6        -845.4066  -609.0520   813.1833 H6            1 RES     
   23401 H6        -846.8277  -607.9199   814.9109 H6            1 RES     
   23402 H6        -847.3022  -607.5592   813.2213 H6            1 RES     
   23403 H6        -845.7331  -605.6552   815.0863 H6            1 RES     
   23404 H6        -847.4593  -605.5525   814.6155 H6            1 RES     
   23405 H6        -846.7997  -605.2457   812.2072 H6            1 RES     
   23406 H6        -846.1321  -603.9635   813.2874 H6            1 RES     
   23407 H6        -845.0552  -605.2631   812.6947 H6            1 RES     
   23408 H6        -841.6570  -607.8847   817.8970 H6            1 RES     
   23409 H6        -843.0978  -607.0236   817.2862 H6            1 RES     
   23410 H6        -841.7417  -606.8327   815.0127 H6            1 RES     
   23411 H6        -840.3661  -607.5312   815.8789 H6            1 RES     
   23412 H6        -840.2904  -605.0970   815.6393 H6            1 RES     
   23413 H6        -841.8546  -604.8898   816.4988 H6            1 RES     
   23414 H6        -839.2606  -606.0296   817.7642 H6            1 RES     
   23415 H6        -840.8405  -605.7745   818.5929 H6            1 RES     
   23416 H6        -840.6873  -603.3042   818.1593 H6            1 RES     
   23417 H6        -839.3541  -603.9644   819.1718 H6            1 RES     
   23418 H6        -839.1300  -603.3185   816.1610 H6            1 RES     
   23419 H6        -837.8119  -603.9771   817.1944 H6            1 RES     
   23420 H6        -837.6249  -601.5369   816.7486 H6            1 RES     
   23421 H6        -839.2310  -601.2390   817.5014 H6            1 RES     
   23422 H6        -838.3122  -602.0136   819.7174 H6            1 RES     
   23423 H6        -837.3377  -600.6764   819.0237 H6            1 RES     
   23424 H6        -836.7216  -602.3675   818.9215 H6            1 RES     
   23425 C0        -839.9155  -623.7082   820.7208 C0            1 RES     
   23426 C0        -839.9646  -625.1817   820.1469 C0            1 RES     
   23427 C0        -839.9085  -625.1765   818.7939 C0            1 RES     
   23428 S1        -839.9155  -626.7053   818.1014 S1            1 RES     
   23429 C0        -839.9861  -627.4963   819.6036 C0            1 RES     
   23430 C0        -840.0881  -626.5207   820.6057 C0            1 RES     
   23431 C0        -839.9377  -623.8420   818.3225 C0            1 RES     
   23432 C0        -839.9661  -623.0241   819.3502 C0            1 RES     
   23433 C0        -840.2061  -621.6737   818.9249 C0            1 RES     
   23434 C0        -840.3594  -621.5909   817.5529 C0            1 RES     
   23435 S1        -840.1401  -623.1561   816.6886 S1            1 RES     
   23436 H2        -840.2007  -626.8055   821.6196 H2            1 RES     
   23437 H2        -840.3853  -620.8778   819.5843 H2            1 RES     
   23438 N3        -839.4491  -630.8069   821.3908 N3            1 RES     
   23439 C0        -839.6547  -629.4808   821.1538 C0            1 RES     
   23440 C0        -839.8549  -628.9776   819.8408 C0            1 RES     
   23441 C0        -839.8425  -629.9302   818.7992 C0            1 RES     
   23442 N3        -840.0222  -629.6400   817.4844 N3            1 RES     
   23443 S1        -839.9056  -631.1237   816.7695 S1            1 RES     
   23444 N3        -839.6267  -632.1518   818.0276 N3            1 RES     
   23445 C0        -839.6259  -631.3084   819.0937 C0            1 RES     
   23446 C0        -839.4266  -631.7286   820.3971 C0            1 RES     
   23447 H4        -839.6258  -628.8274   822.0010 H4            1 RES     
   23448 C5        -833.5991  -632.2911   818.2093 C5            1 RES     
   23449 C5        -834.9231  -631.6309   817.8249 C5            1 RES     
   23450 C5        -835.5871  -630.8831   818.9936 C5            1 RES     
   23451 C5        -834.7815  -629.6624   819.4750 C5            1 RES     
   23452 C5        -835.5154  -628.9353   820.6122 C5            1 RES     
   23453 C5        -834.7929  -627.6271   821.0024 C5            1 RES     
   23454 C5        -835.4961  -626.7964   822.1087 C5            1 RES     
   23455 C5        -836.9708  -626.5770   821.7669 C5            1 RES     
   23456 C5        -837.7287  -625.4512   822.5146 C5            1 RES     
   23457 C5        -838.0657  -625.6308   824.0451 C5            1 RES     
   23458 C5        -839.1967  -626.6934   824.1260 C5            1 RES     
   23459 C5        -839.9336  -627.1963   825.3729 C5            1 RES     
   23460 C5        -840.9796  -628.2226   824.8254 C5            1 RES     
   23461 C5        -841.8956  -628.9204   825.8293 C5            1 RES     
   23462 C5        -842.9371  -627.9888   826.4367 C5            1 RES     
   23463 C5        -837.4260  -624.0611   821.9367 C5            1 RES     
   23464 C0        -838.7275  -623.1808   821.7380 C0            1 RES     
   23465 C5        -838.3142  -621.6461   821.7592 C5            1 RES     
   23466 C5        -839.0453  -620.7008   822.7754 C5            1 RES     
   23467 C5        -840.3783  -620.0974   822.2458 C5            1 RES     
   23468 C5        -840.2202  -618.9325   821.2399 C5            1 RES     
   23469 C5        -841.5344  -618.5538   820.5290 C5            1 RES     
   23470 C5        -842.5882  -617.8695   821.4136 C5            1 RES     
   23471 C5        -842.1624  -616.5014   821.9807 C5            1 RES     
   23472 C5        -841.8148  -615.4792   820.8939 C5            1 RES     
   23473 C5        -838.0969  -619.6113   823.4108 C5            1 RES     
   23474 C5        -837.1561  -618.8388   822.4452 C5            1 RES     
   23475 C5        -836.4288  -617.6346   823.0847 C5            1 RES     
   23476 C5        -835.4807  -617.9837   824.2491 C5            1 RES     
   23477 C5        -834.7339  -616.7491   824.8113 C5            1 RES     
   23478 C5        -833.7267  -616.1299   823.8173 C5            1 RES     
   23479 C5        -832.9873  -614.8934   824.3632 C5            1 RES     
   23480 C5        -832.0828  -615.1900   825.5593 C5            1 RES     
   23481 H6        -832.8421  -631.5355   818.5006 H6            1 RES     
   23482 H6        -833.2016  -632.8552   817.3393 H6            1 RES     
   23483 H6        -833.7559  -633.0006   819.0494 H6            1 RES     
   23484 H6        -834.7614  -630.9374   816.9708 H6            1 RES     
   23485 H6        -835.6168  -632.4325   817.4894 H6            1 RES     
   23486 H6        -836.5801  -630.5268   818.6385 H6            1 RES     
   23487 H6        -835.7552  -631.5885   819.8357 H6            1 RES     
   23488 H6        -834.6567  -628.9678   818.6141 H6            1 RES     
   23489 H6        -833.7787  -629.9667   819.8384 H6            1 RES     
   23490 H6        -836.5332  -628.6947   820.2377 H6            1 RES     
   23491 H6        -835.6042  -629.6031   821.4956 H6            1 RES     
   23492 H6        -833.7523  -627.8458   821.3249 H6            1 RES     
   23493 H6        -834.7391  -626.9944   820.0879 H6            1 RES     
   23494 H6        -835.4261  -627.2969   823.0983 H6            1 RES     
   23495 H6        -834.9654  -625.8217   822.1670 H6            1 RES     
   23496 H6        -837.4978  -627.5407   821.8959 H6            1 RES     
   23497 H6        -837.0393  -626.3351   820.6818 H6            1 RES     
   23498 H6        -838.6694  -625.5297   822.1049 H6            1 RES     
   23499 H6        -837.1590  -625.9065   824.6235 H6            1 RES     
   23500 H6        -838.4797  -624.6830   824.4547 H6            1 RES     
   23501 H6        -840.0297  -626.2285   823.5657 H6            1 RES     
   23502 H6        -838.7943  -627.5956   823.6354 H6            1 RES     
   23503 H6        -840.4382  -626.3518   825.8901 H6            1 RES     
   23504 H6        -839.2306  -627.6977   826.0699 H6            1 RES     
   23505 H6        -841.6319  -627.7365   824.0618 H6            1 RES     
   23506 H6        -840.4180  -629.0319   824.3089 H6            1 RES     
   23507 H6        -841.2938  -629.4189   826.6160 H6            1 RES     
   23508 H6        -842.4549  -629.7055   825.2697 H6            1 RES     
   23509 H6        -843.5550  -627.5292   825.6334 H6            1 RES     
   23510 H6        -842.4541  -627.1929   827.0358 H6            1 RES     
   23511 H6        -843.6115  -628.5813   827.0914 H6            1 RES     
   23512 H6        -836.9751  -624.1220   820.9225 H6            1 RES     
   23513 H6        -836.6582  -623.6169   822.6062 H6            1 RES     
   23514 H6        -837.2819  -621.6413   822.1576 H6            1 RES     
   23515 H6        -838.1782  -621.2071   820.7509 H6            1 RES     
   23516 H6        -839.3358  -621.3454   823.6356 H6            1 RES     
   23517 H6        -840.9649  -620.9299   821.8042 H6            1 RES     
   23518 H6        -840.9623  -619.7057   823.1066 H6            1 RES     
   23519 H6        -839.8050  -618.0357   821.7378 H6            1 RES     
   23520 H6        -839.4941  -619.2233   820.4578 H6            1 RES     
   23521 H6        -841.2948  -617.8849   819.6775 H6            1 RES     
   23522 H6        -841.9918  -619.4635   820.0888 H6            1 RES     
   23523 H6        -842.8670  -618.5435   822.2506 H6            1 RES     
   23524 H6        -843.4977  -617.7143   820.7928 H6            1 RES     
   23525 H6        -841.3002  -616.6130   822.6699 H6            1 RES     
   23526 H6        -843.0148  -616.1007   822.5700 H6            1 RES     
   23527 H6        -842.6679  -615.3510   820.1937 H6            1 RES     
   23528 H6        -841.5896  -614.4993   821.3636 H6            1 RES     
   23529 H6        -840.9149  -615.7889   820.3235 H6            1 RES     
   23530 H6        -837.4253  -620.1246   824.1324 H6            1 RES     
   23531 H6        -838.7229  -618.9045   823.9977 H6            1 RES     
   23532 H6        -837.7083  -618.4195   821.5937 H6            1 RES     
   23533 H6        -836.4013  -619.5335   822.0191 H6            1 RES     
   23534 H6        -835.8433  -617.1640   822.2700 H6            1 RES     
   23535 H6        -837.1826  -616.8964   823.4375 H6            1 RES     
   23536 H6        -834.7344  -618.7402   823.9227 H6            1 RES     
   23537 H6        -836.0831  -618.4166   825.0733 H6            1 RES     
   23538 H6        -835.4713  -615.9802   825.1305 H6            1 RES     
   23539 H6        -834.1754  -617.0850   825.7123 H6            1 RES     
   23540 H6        -834.2657  -615.7918   822.9102 H6            1 RES     
   23541 H6        -832.9809  -616.8974   823.5154 H6            1 RES     
   23542 H6        -832.3447  -614.4927   823.5481 H6            1 RES     
   23543 H6        -833.7209  -614.1057   824.6397 H6            1 RES     
   23544 H6        -832.6718  -615.5331   826.4333 H6            1 RES     
   23545 H6        -831.5475  -614.2613   825.8525 H6            1 RES     
   23546 H6        -831.3290  -615.9606   825.2919 H6            1 RES     
   23547 C0        -838.7081  -636.2191   823.2887 C0            1 RES     
   23548 C0        -839.1551  -637.4820   822.4472 C0            1 RES     
   23549 C0        -839.2996  -637.1655   821.1386 C0            1 RES     
   23550 S1        -839.7353  -638.4604   820.1639 S1            1 RES     
   23551 C0        -839.7507  -639.5607   821.4587 C0            1 RES     
   23552 C0        -839.4927  -638.8487   822.6389 C0            1 RES     
   23553 C0        -839.1123  -635.7733   820.9632 C0            1 RES     
   23554 C0        -838.8131  -635.2310   822.1218 C0            1 RES     
   23555 C0        -838.8191  -633.7976   822.0344 C0            1 RES     
   23556 C0        -839.1521  -633.3658   820.7634 C0            1 RES     
   23557 S1        -839.4025  -634.6944   819.5730 S1            1 RES     
   23558 H2        -839.5126  -639.3420   823.5760 H2            1 RES     
   23559 H2        -838.7247  -633.1625   822.8638 H2            1 RES     
   23560 N3        -839.6757  -643.2424   822.3977 N3            1 RES     
   23561 C0        -839.6258  -641.8831   822.4795 C0            1 RES     
   23562 C0        -839.9055  -641.0553   821.3598 C0            1 RES     
   23563 C0        -840.2510  -641.7203   820.1635 C0            1 RES     
   23564 N3        -840.5567  -641.0992   818.9947 N3            1 RES     
   23565 S1        -840.8667  -642.3673   817.9840 S1            1 RES     
   23566 N3        -840.6313  -643.6974   818.9291 N3            1 RES     
   23567 C0        -840.2928  -643.1449   820.1241 C0            1 RES     
   23568 C0        -839.9976  -643.8910   821.2518 C0            1 RES     
   23569 H4        -839.3331  -641.4651   823.4203 H4            1 RES     
   23570 C5        -834.8136  -644.9292   817.9185 C5            1 RES     
   23571 C5        -836.0078  -643.9752   817.9379 C5            1 RES     
   23572 C5        -836.3166  -643.4220   819.3396 C5            1 RES     
   23573 C5        -835.2066  -642.5111   819.8957 C5            1 RES     
   23574 C5        -835.5920  -641.9581   821.2762 C5            1 RES     
   23575 C5        -834.5571  -640.9273   821.7785 C5            1 RES     
   23576 C5        -834.8952  -640.2733   823.1447 C5            1 RES     
   23577 C5        -836.3230  -639.7242   823.1442 C5            1 RES     
   23578 C5        -836.7038  -638.6934   824.2365 C5            1 RES     
   23579 C5        -836.8416  -639.1697   825.7341 C5            1 RES     
   23580 C5        -838.1489  -640.0060   825.8125 C5            1 RES     
   23581 C5        -838.7838  -640.6538   827.0487 C5            1 RES     
   23582 C5        -840.0940  -641.3212   826.5148 C5            1 RES     
   23583 C5        -840.9794  -642.0659   827.5125 C5            1 RES     
   23584 C5        -841.6964  -641.1378   828.4851 C5            1 RES     
   23585 C5        -836.1998  -637.2810   823.9066 C5            1 RES     
   23586 C0        -837.2978  -636.1649   824.1447 C0            1 RES     
   23587 C5        -836.5676  -634.7759   824.3981 C5            1 RES     
   23588 C5        -836.9215  -633.9861   825.7064 C5            1 RES     
   23589 C5        -838.1580  -633.0503   825.5766 C5            1 RES     
   23590 C5        -837.9050  -631.7260   824.8176 C5            1 RES     
   23591 C5        -839.1981  -630.9652   824.4643 C5            1 RES     
   23592 C5        -839.9389  -630.3370   825.6551 C5            1 RES     
   23593 C5        -839.1516  -629.2391   826.3964 C5            1 RES     
   23594 C5        -838.7580  -628.0651   825.4943 C5            1 RES     
   23595 C5        -835.6790  -633.2621   826.3562 C5            1 RES     
   23596 C5        -834.7481  -632.4593   825.4059 C5            1 RES     
   23597 C5        -833.6940  -631.5881   826.1254 C5            1 RES     
   23598 C5        -832.6810  -632.3643   826.9903 C5            1 RES     
   23599 C5        -831.6130  -631.4490   827.6381 C5            1 RES     
   23600 C5        -830.6548  -630.7976   826.6165 C5            1 RES     
   23601 C5        -829.5959  -629.8753   827.2504 C5            1 RES     
   23602 C5        -828.6092  -630.6012   828.1648 C5            1 RES     
   23603 H6        -833.8781  -644.4090   818.2067 H6            1 RES     
   23604 H6        -834.6787  -645.3311   816.8922 H6            1 RES     
   23605 H6        -834.9925  -645.7792   818.6108 H6            1 RES     
   23606 H6        -835.8296  -643.1380   817.2280 H6            1 RES     
   23607 H6        -836.8986  -644.5400   817.5858 H6            1 RES     
   23608 H6        -837.2518  -642.8233   819.2617 H6            1 RES     
   23609 H6        -836.5052  -644.2667   820.0368 H6            1 RES     
   23610 H6        -835.0649  -641.6649   819.1865 H6            1 RES     
   23611 H6        -834.2496  -643.0638   819.9902 H6            1 RES     
   23612 H6        -836.5787  -641.4610   821.1610 H6            1 RES     
   23613 H6        -835.6900  -642.7904   822.0056 H6            1 RES     
   23614 H6        -833.5514  -641.3951   821.8439 H6            1 RES     
   23615 H6        -834.5051  -640.1150   821.0190 H6            1 RES     
   23616 H6        -834.7885  -640.9989   823.9794 H6            1 RES     
   23617 H6        -834.1659  -639.4487   823.2972 H6            1 RES     
   23618 H6        -837.0188  -640.5834   823.1730 H6            1 RES     
   23619 H6        -836.4977  -639.2233   822.1647 H6            1 RES     
   23620 H6        -837.6895  -638.5065   824.0078 H6            1 RES     
   23621 H6        -835.9394  -639.7292   826.0593 H6            1 RES     
   23622 H6        -836.9783  -638.2889   826.3996 H6            1 RES     
   23623 H6        -838.9367  -639.2830   825.5290 H6            1 RES     
   23624 H6        -838.0255  -640.8221   825.0806 H6            1 RES     
   23625 H6        -839.0141  -639.8813   827.8140 H6            1 RES     
   23626 H6        -838.1091  -641.4215   827.4809 H6            1 RES     
   23627 H6        -840.7329  -640.5611   826.0058 H6            1 RES     
   23628 H6        -839.8010  -642.0700   825.7465 H6            1 RES     
   23629 H6        -840.3886  -642.8345   828.0507 H6            1 RES     
   23630 H6        -841.7700  -642.5851   826.9227 H6            1 RES     
   23631 H6        -842.3135  -640.3996   827.9259 H6            1 RES     
   23632 H6        -840.9713  -640.6042   829.1295 H6            1 RES     
   23633 H6        -842.3775  -641.7413   829.1225 H6            1 RES     
   23634 H6        -835.9272  -637.1773   822.8340 H6            1 RES     
   23635 H6        -835.2645  -637.1501   824.4925 H6            1 RES     
   23636 H6        -835.5109  -635.0467   824.5835 H6            1 RES     
   23637 H6        -836.4914  -634.1407   823.4934 H6            1 RES     
   23638 H6        -837.2128  -634.7554   826.4569 H6            1 RES     
   23639 H6        -838.9676  -633.6381   825.0957 H6            1 RES     
   23640 H6        -838.5111  -632.7783   826.5948 H6            1 RES     
   23641 H6        -837.2389  -631.0602   825.3985 H6            1 RES     
   23642 H6        -837.3814  -631.9453   823.8682 H6            1 RES     
   23643 H6        -838.9496  -630.1658   823.7370 H6            1 RES     
   23644 H6        -839.8993  -631.6497   823.9444 H6            1 RES     
   23645 H6        -840.2285  -631.1309   826.3750 H6            1 RES     
   23646 H6        -840.8757  -629.8820   825.2652 H6            1 RES     
   23647 H6        -838.2410  -629.6604   826.8698 H6            1 RES     
   23648 H6        -839.8020  -628.8470   827.2072 H6            1 RES     
   23649 H6        -839.6578  -627.6269   825.0118 H6            1 RES     
   23650 H6        -838.2618  -627.2799   826.1014 H6            1 RES     
   23651 H6        -838.0394  -628.3830   824.7109 H6            1 RES     
   23652 H6        -835.0336  -634.0416   826.8157 H6            1 RES     
   23653 H6        -836.0457  -632.6165   827.1837 H6            1 RES     
   23654 H6        -835.3174  -631.7597   824.7796 H6            1 RES     
   23655 H6        -834.2305  -633.1541   824.7106 H6            1 RES     
   23656 H6        -833.1483  -631.0474   825.3266 H6            1 RES     
   23657 H6        -834.2120  -630.8345   826.7590 H6            1 RES     
   23658 H6        -832.1701  -633.1402   826.3798 H6            1 RES     
   23659 H6        -833.2334  -632.8682   827.8091 H6            1 RES     
   23660 H6        -832.1136  -630.6610   828.2425 H6            1 RES     
   23661 H6        -831.0123  -632.0817   828.3276 H6            1 RES     
   23662 H6        -831.2370  -630.1647   825.9179 H6            1 RES     
   23663 H6        -830.1432  -631.5897   826.0273 H6            1 RES     
   23664 H6        -829.0102  -629.4114   826.4261 H6            1 RES     
   23665 H6        -830.0951  -629.0599   827.8170 H6            1 RES     
   23666 H6        -829.1222  -631.0335   829.0471 H6            1 RES     
   23667 H6        -827.8505  -629.8773   828.5326 H6            1 RES     
   23668 H6        -828.0855  -631.4060   827.6066 H6            1 RES     
   23669 C0        -839.8363  -648.9942   822.9761 C0            1 RES     
   23670 C0        -840.6621  -649.9227   821.9969 C0            1 RES     
   23671 C0        -840.9274  -649.2841   820.8327 C0            1 RES     
   23672 S1        -841.7688  -650.2135   819.7169 S1            1 RES     
   23673 C0        -841.8275  -651.5697   820.7391 C0            1 RES     
   23674 C0        -841.2519  -651.2149   821.9676 C0            1 RES     
   23675 C0        -840.4748  -647.9450   820.9117 C0            1 RES     
   23676 C0        -839.8989  -647.7545   822.0770 C0            1 RES     
   23677 C0        -839.6113  -646.3632   822.2860 C0            1 RES     
   23678 C0        -840.0283  -645.5904   821.2175 C0            1 RES     
   23679 S1        -840.7299  -646.5331   819.8523 S1            1 RES     
   23680 H2        -841.2381  -651.9054   822.7707 H2            1 RES     
   23681 H2        -839.2619  -645.9698   823.1935 H2            1 RES     
   23682 N3        -842.4032  -655.3236   820.8769 N3            1 RES     
   23683 C0        -842.0525  -654.0530   821.2225 C0            1 RES     
   23684 C0        -842.3111  -652.9471   820.3696 C0            1 RES     
   23685 C0        -842.9634  -653.2378   819.1520 C0            1 RES     
   23686 N3        -843.2985  -652.3131   818.2149 N3            1 RES     
   23687 S1        -844.0183  -653.2305   817.0460 S1            1 RES     
   23688 N3        -843.9356  -654.7670   817.6375 N3            1 RES     
   23689 C0        -843.3141  -654.5823   818.8323 C0            1 RES     
   23690 C0        -843.0219  -655.6147   819.7064 C0            1 RES     
   23691 H4        -841.5416  -653.9283   822.1547 H4            1 RES     
   23692 C5        -838.7300  -656.7226   815.3002 C5            1 RES     
   23693 C5        -839.6765  -655.6066   815.7421 C5            1 RES     
   23694 C5        -839.6494  -655.3569   817.2597 C5            1 RES     
   23695 C5        -838.3008  -654.8131   817.7660 C5            1 RES     
   23696 C5        -838.3509  -654.5451   819.2779 C5            1 RES     
   23697 C5        -837.0571  -653.8608   819.7714 C5            1 RES     
   23698 C5        -837.0421  -653.5013   821.2810 C5            1 RES     
   23699 C5        -838.3035  -652.7265   821.6662 C5            1 RES     
   23700 C5        -838.2896  -651.9345   822.9979 C5            1 RES     
   23701 C5        -838.3032  -652.7211   824.3652 C5            1 RES     
   23702 C5        -839.7328  -653.3099   824.5210 C5            1 RES     
   23703 C5        -840.3018  -654.1113   825.6979 C5            1 RES     
   23704 C5        -841.7885  -654.3927   825.3009 C5            1 RES     
   23705 C5        -842.6553  -655.1862   826.2770 C5            1 RES     
   23706 C5        -843.0057  -654.4049   827.5373 C5            1 RES     
   23707 C5        -837.5498  -650.5948   822.8718 C5            1 RES     
   23708 C0        -838.3364  -649.3927   823.5384 C0            1 RES     
   23709 C5        -837.2971  -648.2536   823.9242 C5            1 RES     
   23710 C5        -837.2768  -647.7478   825.4090 C5            1 RES     
   23711 C5        -838.2901  -646.6063   825.7120 C5            1 RES     
   23712 C5        -837.8749  -645.2050   825.2043 C5            1 RES     
   23713 C5        -839.0131  -644.1678   825.2681 C5            1 RES     
   23714 C5        -839.4184  -643.7207   826.6814 C5            1 RES     
   23715 C5        -838.3140  -642.9856   827.4654 C5            1 RES     
   23716 C5        -837.8163  -641.7186   826.7628 C5            1 RES     
   23717 C5        -835.8262  -647.4280   825.9417 C5            1 RES     
   23718 C5        -834.8961  -646.5983   825.0141 C5            1 RES     
   23719 C5        -833.5857  -646.1213   825.6799 C5            1 RES     
   23720 C5        -832.6456  -647.2457   826.1580 C5            1 RES     
   23721 C5        -831.3230  -646.7121   826.7612 C5            1 RES     
   23722 C5        -830.4094  -646.0149   825.7292 C5            1 RES     
   23723 C5        -829.0962  -645.4696   826.3223 C5            1 RES     
   23724 C5        -828.1634  -646.5532   826.8631 C5            1 RES     
   23725 H6        -837.6729  -656.4578   815.5033 H6            1 RES     
   23726 H6        -838.8373  -656.8864   814.2072 H6            1 RES     
   23727 H6        -838.9823  -657.6679   815.8262 H6            1 RES     
   23728 H6        -839.4304  -654.6692   815.1968 H6            1 RES     
   23729 H6        -840.7094  -655.9066   815.4600 H6            1 RES     
   23730 H6        -840.4361  -654.6027   817.4862 H6            1 RES     
   23731 H6        -839.9092  -656.2966   817.7934 H6            1 RES     
   23732 H6        -838.0878  -653.8609   817.2302 H6            1 RES     
   23733 H6        -837.4809  -655.5312   817.5606 H6            1 RES     
   23734 H6        -839.2145  -653.8700   819.4578 H6            1 RES     
   23735 H6        -838.5157  -655.4965   819.8276 H6            1 RES     
   23736 H6        -836.1762  -654.4994   819.5460 H6            1 RES     
   23737 H6        -836.9454  -652.9134   819.1975 H6            1 RES     
   23738 H6        -836.9707  -654.4115   821.9143 H6            1 RES     
   23739 H6        -836.1390  -652.8774   821.4554 H6            1 RES     
   23740 H6        -839.1548  -653.4324   821.6526 H6            1 RES     
   23741 H6        -838.5098  -651.9846   820.8614 H6            1 RES     
   23742 H6        -839.2353  -651.5288   823.0054 H6            1 RES     
   23743 H6        -837.5036  -653.4910   824.3904 H6            1 RES     
   23744 H6        -838.1487  -652.0137   825.2096 H6            1 RES     
   23745 H6        -840.3809  -652.4138   824.5472 H6            1 RES     
   23746 H6        -839.8962  -653.9373   823.6286 H6            1 RES     
   23747 H6        -840.2461  -653.5147   826.6341 H6            1 RES     
   23748 H6        -839.7505  -655.0656   825.8272 H6            1 RES     
   23749 H6        -842.3182  -653.4337   825.0895 H6            1 RES     
   23750 H6        -841.7790  -654.9770   824.3546 H6            1 RES     
   23751 H6        -842.1695  -656.1519   826.5240 H6            1 RES     
   23752 H6        -843.6168  -655.4038   825.7568 H6            1 RES     
   23753 H6        -843.5264  -653.4588   827.2692 H6            1 RES     
   23754 H6        -842.0963  -654.1751   828.1255 H6            1 RES     
   23755 H6        -843.6982  -655.0137   828.1571 H6            1 RES     
   23756 H6        -837.4228  -650.2886   821.8108 H6            1 RES     
   23757 H6        -836.5321  -650.7727   823.2815 H6            1 RES     
   23758 H6        -836.3071  -648.7415   823.8443 H6            1 RES     
   23759 H6        -837.2214  -647.4451   823.1703 H6            1 RES     
   23760 H6        -837.6116  -648.6101   826.0288 H6            1 RES     
   23761 H6        -839.2685  -646.9120   825.2861 H6            1 RES     
   23762 H6        -838.4225  -646.5265   826.8127 H6            1 RES     
   23763 H6        -837.0035  -644.8235   825.7697 H6            1 RES     
   23764 H6        -837.5563  -645.2807   824.1477 H6            1 RES     
   23765 H6        -838.7097  -643.2747   824.6848 H6            1 RES     
   23766 H6        -839.9133  -644.5755   824.7642 H6            1 RES     
   23767 H6        -839.7614  -644.5996   827.2665 H6            1 RES     
   23768 H6        -840.2834  -643.0293   826.5795 H6            1 RES     
   23769 H6        -837.4547  -643.6601   827.6595 H6            1 RES     
   23770 H6        -838.7385  -642.6897   828.4485 H6            1 RES     
   23771 H6        -838.6628  -641.0277   826.5614 H6            1 RES     
   23772 H6        -837.0796  -641.1995   827.4103 H6            1 RES     
   23773 H6        -837.3060  -641.9621   825.8081 H6            1 RES     
   23774 H6        -835.3017  -648.3949   826.1004 H6            1 RES     
   23775 H6        -835.9202  -646.9435   826.9380 H6            1 RES     
   23776 H6        -835.3889  -645.6813   824.6645 H6            1 RES     
   23777 H6        -834.6475  -647.1875   824.1058 H6            1 RES     
   23778 H6        -833.0612  -645.5105   824.9184 H6            1 RES     
   23779 H6        -833.8313  -645.4611   826.5411 H6            1 RES     
   23780 H6        -832.4083  -647.9315   825.3159 H6            1 RES     
   23781 H6        -833.1659  -647.8250   826.9475 H6            1 RES     
   23782 H6        -831.5488  -646.0152   827.5979 H6            1 RES     
   23783 H6        -830.7764  -647.5856   827.1792 H6            1 RES     
   23784 H6        -830.9396  -645.1422   825.2989 H6            1 RES     
   23785 H6        -830.1717  -646.7213   824.9041 H6            1 RES     
   23786 H6        -828.5532  -644.9331   825.5129 H6            1 RES     
   23787 H6        -829.3203  -644.7378   827.1280 H6            1 RES     
   23788 H6        -828.6208  -647.0860   827.7207 H6            1 RES     
   23789 H6        -827.2217  -646.0818   827.2180 H6            1 RES     
   23790 H6        -827.9121  -647.2813   826.0629 H6            1 RES     
   23791 C0        -843.7020  -660.9285   820.2923 C0            1 RES     
   23792 C0        -844.8425  -661.4384   819.3217 C0            1 RES     
   23793 C0        -845.1342  -660.5053   818.3848 C0            1 RES     
   23794 S1        -846.3102  -660.9809   817.2859 S1            1 RES     
   23795 C0        -846.5057  -662.5092   818.0025 C0            1 RES     
   23796 C0        -845.6926  -662.5628   819.1437 C0            1 RES     
   23797 C0        -844.3993  -659.3238   818.6464 C0            1 RES     
   23798 C0        -843.6304  -659.5194   819.6934 C0            1 RES     
   23799 C0        -843.0244  -658.2901   820.1221 C0            1 RES     
   23800 C0        -843.4198  -657.2249   819.3335 C0            1 RES     
   23801 S1        -844.5004  -657.6784   817.9655 S1            1 RES     
   23802 H2        -845.7082  -663.4158   819.7716 H2            1 RES     
   23803 H2        -842.4690  -658.1910   821.0063 H2            1 RES     
   23804 N3        -847.8434  -666.0278   817.4812 N3            1 RES     
   23805 C0        -847.1822  -664.9574   818.0043 C0            1 RES     
   23806 C0        -847.3215  -663.6528   817.4602 C0            1 RES     
   23807 C0        -848.1935  -663.5271   816.3572 C0            1 RES     
   23808 N3        -848.4579  -662.3623   815.7101 N3            1 RES     
   23809 S1        -849.5216  -662.8351   814.5391 S1            1 RES     
   23810 N3        -849.6827  -664.4582   814.7785 N3            1 RES     
   23811 C0        -848.8667  -664.6744   815.8439 C0            1 RES     
   23812 C0        -848.6760  -665.9196   816.4170 C0            1 RES     
   23813 H4        -846.5245  -665.1491   818.8266 H4            1 RES     
   23814 C5        -845.4190  -666.6830   811.1376 C5            1 RES     
   23815 C5        -846.0292  -665.5559   811.9706 C5            1 RES     
   23816 C5        -845.7256  -665.6826   813.4732 C5            1 RES     
   23817 C5        -844.2323  -665.5194   813.8112 C5            1 RES     
   23818 C5        -844.0001  -665.6138   815.3269 C5            1 RES     
   23819 C5        -842.5316  -665.3037   815.6917 C5            1 RES     
   23820 C5        -842.2172  -665.3215   817.2113 C5            1 RES     
   23821 C5        -843.2129  -664.4518   817.9810 C5            1 RES     
   23822 C5        -842.8336  -664.0138   819.4180 C5            1 RES     
   23823 C5        -842.8129  -665.0878   820.5732 C5            1 RES     
   23824 C5        -844.2962  -665.4371   820.8773 C5            1 RES     
   23825 C5        -844.8430  -666.3827   821.9533 C5            1 RES     
   23826 C5        -846.3975  -666.2970   821.8002 C5            1 RES     
   23827 C5        -847.2599  -667.1352   822.7421 C5            1 RES     
   23828 C5        -847.2451  -666.6268   824.1784 C5            1 RES     
   23829 C5        -841.8515  -662.8334   819.4277 C5            1 RES     
   23830 C0        -842.2558  -661.7054   820.4632 C0            1 RES     
   23831 C5        -840.9517  -660.8907   820.8661 C5            1 RES     
   23832 C5        -840.6047  -660.7637   822.3906 C5            1 RES     
   23833 C5        -841.2945  -659.5677   823.1083 C5            1 RES     
   23834 C5        -840.6691  -658.1809   822.8264 C5            1 RES     
   23835 C5        -841.5372  -657.0056   823.3172 C5            1 RES     
   23836 C5        -841.6242  -656.8432   824.8428 C5            1 RES     
   23837 C5        -840.2848  -656.5206   825.5332 C5            1 RES     
   23838 C5        -839.6372  -655.2301   825.0210 C5            1 RES     
   23839 C5        -839.0569  -660.8387   822.6888 C5            1 RES     
   23840 C5        -838.1184  -659.9885   821.7887 C5            1 RES     
   23841 C5        -836.6527  -659.9203   822.2735 C5            1 RES     
   23842 C5        -835.9146  -661.2729   822.3232 C5            1 RES     
   23843 C5        -834.4343  -661.1379   822.7572 C5            1 RES     
   23844 C5        -833.5555  -660.3866   821.7330 C5            1 RES     
   23845 C5        -832.0832  -660.2364   822.1614 C5            1 RES     
   23846 C5        -831.3341  -661.5636   822.2811 C5            1 RES     
   23847 H6        -844.3116  -666.6633   811.1836 H6            1 RES     
   23848 H6        -845.7190  -666.5611   810.0754 H6            1 RES     
   23849 H6        -845.7869  -667.6669   811.4986 H6            1 RES     
   23850 H6        -845.6718  -664.5738   811.5906 H6            1 RES     
   23851 H6        -847.1325  -665.5947   811.8369 H6            1 RES     
   23852 H6        -846.2906  -664.8780   813.9952 H6            1 RES     
   23853 H6        -846.0984  -666.6617   813.8442 H6            1 RES     
   23854 H6        -843.9023  -664.5196   813.4497 H6            1 RES     
   23855 H6        -843.6243  -666.3004   813.3105 H6            1 RES     
   23856 H6        -844.6632  -664.8603   815.8028 H6            1 RES     
   23857 H6        -844.2813  -666.6245   815.6926 H6            1 RES     
   23858 H6        -841.8506  -666.0146   815.1763 H6            1 RES     
   23859 H6        -842.3060  -664.2817   815.3121 H6            1 RES     
   23860 H6        -842.2493  -666.3541   817.6204 H6            1 RES     
   23861 H6        -841.1861  -664.9249   817.3324 H6            1 RES     
   23862 H6        -844.1878  -664.9740   817.9875 H6            1 RES     
   23863 H6        -843.3725  -663.5157   817.3988 H6            1 RES     
   23864 H6        -843.6590  -663.4625   819.6893 H6            1 RES     
   23865 H6        -842.2015  -665.9694   820.2873 H6            1 RES     
   23866 H6        -842.3877  -664.6396   821.4983 H6            1 RES     
   23867 H6        -844.7266  -664.4736   821.2092 H6            1 RES     
   23868 H6        -844.7198  -665.7960   819.9242 H6            1 RES     
   23869 H6        -844.5235  -666.0449   822.9628 H6            1 RES     
   23870 H6        -844.4955  -667.4218   821.7774 H6            1 RES     
   23871 H6        -846.7352  -665.2377   821.8940 H6            1 RES     
   23872 H6        -846.6529  -666.6321   820.7709 H6            1 RES     
   23873 H6        -846.9607  -668.2016   822.6895 H6            1 RES     
   23874 H6        -848.3117  -667.0512   822.3829 H6            1 RES     
   23875 H6        -847.5854  -665.5679   824.2134 H6            1 RES     
   23876 H6        -846.2310  -666.7062   824.6153 H6            1 RES     
   23877 H6        -847.9525  -667.2344   824.7824 H6            1 RES     
   23878 H6        -841.8201  -662.3111   818.4470 H6            1 RES     
   23879 H6        -840.8462  -663.2789   819.5895 H6            1 RES     
   23880 H6        -840.1118  -661.5112   820.5000 H6            1 RES     
   23881 H6        -840.8172  -659.9524   820.2922 H6            1 RES     
   23882 H6        -841.0208  -661.6762   822.8744 H6            1 RES     
   23883 H6        -842.3675  -659.5871   822.8249 H6            1 RES     
   23884 H6        -841.2428  -659.7297   824.2067 H6            1 RES     
   23885 H6        -839.6626  -658.1032   823.2797 H6            1 RES     
   23886 H6        -840.5337  -658.0579   821.7355 H6            1 RES     
   23887 H6        -841.1395  -656.0669   822.8808 H6            1 RES     
   23888 H6        -842.5680  -657.1178   822.9231 H6            1 RES     
   23889 H6        -842.0569  -657.7619   825.2915 H6            1 RES     
   23890 H6        -842.3268  -656.0069   825.0517 H6            1 RES     
   23891 H6        -839.5706  -657.3615   825.4174 H6            1 RES     
   23892 H6        -840.4864  -656.3970   826.6187 H6            1 RES     
   23893 H6        -840.3368  -654.3740   825.1307 H6            1 RES     
   23894 H6        -838.7193  -655.0170   825.6070 H6            1 RES     
   23895 H6        -839.3375  -655.3254   823.9570 H6            1 RES     
   23896 H6        -838.7336  -661.8921   822.5437 H6            1 RES     
   23897 H6        -838.8970  -660.5960   823.7619 H6            1 RES     
   23898 H6        -838.4500  -658.9430   821.7342 H6            1 RES     
   23899 H6        -838.1384  -660.3792   820.7490 H6            1 RES     
   23900 H6        -836.1282  -659.2477   821.5661 H6            1 RES     
   23901 H6        -836.6216  -659.4512   823.2818 H6            1 RES     
   23902 H6        -835.9564  -661.7697   821.3296 H6            1 RES     
   23903 H6        -836.4242  -661.9229   823.0632 H6            1 RES     
   23904 H6        -834.3797  -660.6313   823.7457 H6            1 RES     
   23905 H6        -834.0313  -662.1676   822.8758 H6            1 RES     
   23906 H6        -833.9445  -659.3578   821.5993 H6            1 RES     
   23907 H6        -833.5987  -660.9072   820.7514 H6            1 RES     
   23908 H6        -831.5637  -659.6267   821.3893 H6            1 RES     
   23909 H6        -832.0242  -659.6893   823.1269 H6            1 RES     
   23910 H6        -831.7630  -662.1962   823.0837 H6            1 RES     
   23911 H6        -830.2716  -661.3623   822.5370 H6            1 RES     
   23912 H6        -831.3652  -662.1132   821.3164 H6            1 RES     
   23913 C0        -850.3818  -671.0168   816.0284 C0            1 RES     
   23914 C0        -851.7355  -671.0737   815.2116 C0            1 RES     
   23915 C0        -851.9560  -669.9085   814.5580 C0            1 RES     
   23916 S1        -853.3556  -669.8960   813.6318 S1            1 RES     
   23917 C0        -853.7652  -671.4922   814.0462 C0            1 RES     
   23918 C0        -852.8229  -671.9569   814.9750 C0            1 RES     
   23919 C0        -850.9553  -668.9705   814.9086 C0            1 RES     
   23920 C0        -850.0999  -669.5408   815.7265 C0            1 RES     
   23921 C0        -849.1888  -668.5741   816.2720 C0            1 RES     
   23922 C0        -849.4594  -667.2998   815.8076 C0            1 RES     
   23923 S1        -850.8019  -667.2190   814.6092 S1            1 RES     
   23924 H2        -852.9275  -672.9183   815.4072 H2            1 RES     
   23925 H2        -848.5006  -668.7868   817.0345 H2            1 RES     
   23926 N3        -855.8859  -674.4961   813.0863 N3            1 RES     
   23927 C0        -854.9414  -673.7133   813.6796 C0            1 RES     
   23928 C0        -854.8775  -672.3132   813.4494 C0            1 RES     
   23929 C0        -855.8556  -671.7784   812.5834 C0            1 RES     
   23930 N3        -855.9576  -670.4655   812.2498 N3            1 RES     
   23931 S1        -857.2587  -670.4527   811.2336 S1            1 RES     
   23932 N3        -857.7258  -672.0322   811.1639 N3            1 RES     
   23933 C0        -856.8266  -672.6347   811.9862 C0            1 RES     
   23934 C0        -856.8240  -673.9940   812.2464 C0            1 RES     
   23935 H4        -854.2258  -674.2071   814.3038 H4            1 RES     
   23936 C5        -854.6217  -674.0396   806.3974 C5            1 RES     
   23937 C5        -854.8471  -673.0538   807.5437 C5            1 RES     
   23938 C5        -854.3590  -673.5849   808.9022 C5            1 RES     
   23939 C5        -852.8322  -673.7708   808.9734 C5            1 RES     
   23940 C5        -852.4043  -674.2617   810.3648 C5            1 RES     
   23941 C5        -850.8660  -674.3092   810.4963 C5            1 RES     
   23942 C5        -850.3418  -674.7422   811.8914 C5            1 RES     
   23943 C5        -851.0038  -673.9198   812.9984 C5            1 RES     
   23944 C5        -850.3316  -673.9091   814.3944 C5            1 RES     
   23945 C5        -850.3705  -675.2133   815.2809 C5            1 RES     
   23946 C5        -851.8326  -675.3595   815.7864 C5            1 RES     
   23947 C5        -852.4038  -676.4229   816.7319 C5            1 RES     
   23948 C5        -853.9092  -676.0324   816.9006 C5            1 RES     
   23949 C5        -854.7821  -676.9060   817.7999 C5            1 RES     
   23950 C5        -854.4470  -676.7640   819.2794 C5            1 RES     
   23951 C5        -849.1295  -672.9555   814.4555 C5            1 RES     
   23952 C0        -849.1260  -672.0530   815.7569 C0            1 RES     
   23953 C5        -847.6330  -671.5986   816.0592 C5            1 RES     
   23954 C5        -847.0457  -671.9002   817.4822 C5            1 RES     
   23955 C5        -847.3502  -670.8071   818.5470 C5            1 RES     
   23956 C5        -846.4915  -669.5246   818.4386 C5            1 RES     
   23957 C5        -847.0062  -668.3663   819.3156 C5            1 RES     
   23958 C5        -846.8302  -668.5583   820.8301 C5            1 RES     
   23959 C5        -845.3659  -668.6485   821.3016 C5            1 RES     
   23960 C5        -844.5404  -667.4073   820.9482 C5            1 RES     
   23961 C5        -845.5230  -672.3137   817.4562 C5            1 RES     
   23962 C5        -844.5679  -671.4518   816.5849 C5            1 RES     
   23963 C5        -843.0664  -671.7585   816.7830 C5            1 RES     
   23964 C5        -842.6353  -673.1919   816.4138 C5            1 RES     
   23965 C5        -841.1129  -673.4253   816.5739 C5            1 RES     
   23966 C5        -840.2550  -672.6180   815.5749 C5            1 RES     
   23967 C5        -838.7379  -672.8341   815.7342 C5            1 RES     
   23968 C5        -838.2805  -674.2618   815.4353 C5            1 RES     
   23969 H6        -853.5414  -674.2257   806.2330 H6            1 RES     
   23970 H6        -855.0423  -673.6183   805.4600 H6            1 RES     
   23971 H6        -855.1339  -675.0011   806.6143 H6            1 RES     
   23972 H6        -854.3482  -672.0878   807.3101 H6            1 RES     
   23973 H6        -855.9405  -672.8659   807.6191 H6            1 RES     
   23974 H6        -854.6556  -672.8412   809.6755 H6            1 RES     
   23975 H6        -854.8735  -674.5433   809.1306 H6            1 RES     
   23976 H6        -852.3532  -672.7875   808.7665 H6            1 RES     
   23977 H6        -852.4859  -674.5045   808.2171 H6            1 RES     
   23978 H6        -852.8133  -673.5387   811.1023 H6            1 RES     
   23979 H6        -852.8378  -675.2650   810.5642 H6            1 RES     
   23980 H6        -850.4365  -674.9853   809.7262 H6            1 RES     
   23981 H6        -850.4858  -673.2821   810.2967 H6            1 RES     
   23982 H6        -850.5330  -675.8204   812.0801 H6            1 RES     
   23983 H6        -849.2434  -674.5726   811.8905 H6            1 RES     
   23984 H6        -852.0558  -674.2495   813.0854 H6            1 RES     
   23985 H6        -851.0438  -672.8591   812.6606 H6            1 RES     
   23986 H6        -850.9708  -673.3022   814.9255 H6            1 RES     
   23987 H6        -850.0108  -676.0947   814.7097 H6            1 RES     
   23988 H6        -849.7276  -675.0792   816.1787 H6            1 RES     
   23989 H6        -851.9934  -674.4424   816.3838 H6            1 RES     
   23990 H6        -852.4592  -675.4018   814.8796 H6            1 RES     
   23991 H6        -851.8740  -676.3958   817.7086 H6            1 RES     
   23992 H6        -852.3163  -677.4348   816.2848 H6            1 RES     
   23993 H6        -853.9952  -674.9834   817.2712 H6            1 RES     
   23994 H6        -854.3796  -676.0633   815.8932 H6            1 RES     
   23995 H6        -854.7288  -677.9648   817.4749 H6            1 RES     
   23996 H6        -855.8329  -676.5562   817.6739 H6            1 RES     
   23997 H6        -854.5441  -675.7010   819.5939 H6            1 RES     
   23998 H6        -853.4201  -677.1213   819.4882 H6            1 RES     
   23999 H6        -855.1707  -677.3642   819.8714 H6            1 RES     
   24000 H6        -849.1325  -672.2290   813.6142 H6            1 RES     
   24001 H6        -848.2301  -673.5956   814.3273 H6            1 RES     
   24002 H6        -847.0086  -672.2516   815.4203 H6            1 RES     
   24003 H6        -847.3874  -670.5893   815.6734 H6            1 RES     
   24004 H6        -847.5710  -672.8141   817.8407 H6            1 RES     
   24005 H6        -848.4324  -670.5705   818.4769 H6            1 RES     
   24006 H6        -847.1726  -671.2319   819.5587 H6            1 RES     
   24007 H6        -845.4360  -669.7343   818.6964 H6            1 RES     
   24008 H6        -846.4956  -669.1717   817.3903 H6            1 RES     
   24009 H6        -846.4860  -667.4353   819.0113 H6            1 RES     
   24010 H6        -848.0838  -668.1994   819.1122 H6            1 RES     
   24011 H6        -847.3780  -669.4669   821.1569 H6            1 RES     
   24012 H6        -847.2991  -667.6858   821.3356 H6            1 RES     
   24013 H6        -844.8729  -669.5496   820.8822 H6            1 RES     
   24014 H6        -845.3737  -668.7530   822.4076 H6            1 RES     
   24015 H6        -845.0167  -666.4928   821.3620 H6            1 RES     
   24016 H6        -843.5218  -667.5036   821.3780 H6            1 RES     
   24017 H6        -844.4285  -667.2980   819.8497 H6            1 RES     
   24018 H6        -845.4573  -673.3423   817.0404 H6            1 RES     
   24019 H6        -845.1582  -672.3648   818.5052 H6            1 RES     
   24020 H6        -844.6728  -670.3819   816.8090 H6            1 RES     
   24021 H6        -844.8243  -671.5747   815.5111 H6            1 RES     
   24022 H6        -842.5207  -671.0397   816.1401 H6            1 RES     
   24023 H6        -842.7872  -671.5552   817.8406 H6            1 RES     
   24024 H6        -842.9286  -673.4232   815.3668 H6            1 RES     
   24025 H6        -843.1570  -673.8995   817.0898 H6            1 RES     
   24026 H6        -840.8060  -673.1856   817.6156 H6            1 RES     
   24027 H6        -840.9263  -674.5078   816.4009 H6            1 RES     
   24028 H6        -840.4305  -671.5351   815.7305 H6            1 RES     
   24029 H6        -840.5530  -672.8747   814.5348 H6            1 RES     
   24030 H6        -838.2200  -672.1591   815.0174 H6            1 RES     
   24031 H6        -838.4214  -672.5510   816.7612 H6            1 RES     
   24032 H6        -838.7113  -674.9818   816.1594 H6            1 RES     
   24033 H6        -837.1736  -674.3163   815.5181 H6            1 RES     
   24034 H6        -838.5704  -674.5523   814.4033 H6            1 RES     
   24035 C0        -859.6179  -678.4732   811.1632 C0            1 RES     
   24036 C0        -861.0579  -678.0966   810.6272 C0            1 RES     
   24037 C0        -861.1184  -676.7893   810.2792 C0            1 RES     
   24038 S1        -862.6041  -676.3123   809.6611 S1            1 RES     
   24039 C0        -863.2795  -677.8641   809.8126 C0            1 RES     
   24040 C0        -862.3317  -678.6938   810.4289 C0            1 RES     
   24041 C0        -859.8998  -676.1517   810.6147 C0            1 RES     
   24042 C0        -859.0749  -677.0406   811.1197 C0            1 RES     
   24043 C0        -857.9079  -676.4061   811.6653 C0            1 RES     
   24044 C0        -857.9654  -675.0308   811.5307 C0            1 RES     
   24045 S1        -859.4216  -674.4339   810.6543 S1            1 RES     
   24046 H2        -862.5743  -679.6967   810.6683 H2            1 RES     
   24047 H2        -857.1761  -676.9109   812.2220 H2            1 RES     
   24048 N3        -866.1111  -680.1348   808.6866 N3            1 RES     
   24049 C0        -864.9441  -679.6933   809.2342 C0            1 RES     
   24050 C0        -864.6172  -678.3120   809.2860 C0            1 RES     
   24051 C0        -865.5753  -677.4240   808.7510 C0            1 RES     
   24052 N3        -865.4425  -676.0725   808.7176 N3            1 RES     
   24053 S1        -866.8464  -675.5911   807.9942 S1            1 RES     
   24054 N3        -867.6453  -677.0018   807.6954 N3            1 RES     
   24055 C0        -866.7843  -677.9303   808.1897 C0            1 RES     
   24056 C0        -867.0338  -679.2913   808.1624 C0            1 RES     
   24057 H4        -864.2664  -680.4386   809.5957 H4            1 RES     
   24058 C5        -865.7807  -678.3311   802.1150 C5            1 RES     
   24059 C5        -865.6184  -677.6220   803.4594 C5            1 RES     
   24060 C5        -865.0600  -678.5377   804.5620 C5            1 RES     
   24061 C5        -863.6147  -678.9995   804.2995 C5            1 RES     
   24062 C5        -863.1009  -679.8741   805.4534 C5            1 RES     
   24063 C5        -861.6062  -680.2201   805.2748 C5            1 RES     
   24064 C5        -860.9864  -681.0570   806.4255 C5            1 RES     
   24065 C5        -861.2864  -680.4182   807.7826 C5            1 RES     
   24066 C5        -860.4288  -680.8573   808.9961 C5            1 RES     
   24067 C5        -860.6142  -682.3072   809.5893 C5            1 RES     
   24068 C5        -861.9827  -682.3110   810.3254 C5            1 RES     
   24069 C5        -862.6219  -683.4516   811.1263 C5            1 RES     
   24070 C5        -863.9672  -682.8549   811.6567 C5            1 RES     
   24071 C5        -864.8640  -683.7505   812.5097 C5            1 RES     
   24072 C5        -864.2915  -684.0249   813.8948 C5            1 RES     
   24073 C5        -859.0553  -680.1712   809.0182 C5            1 RES     
   24074 C0        -858.6667  -679.6186   810.4506 C0            1 RES     
   24075 C5        -857.0833  -679.5178   810.5469 C5            1 RES     
   24076 C5        -856.3703  -680.2468   811.7390 C5            1 RES     
   24077 C5        -856.2735  -679.4020   813.0422 C5            1 RES     
   24078 C5        -855.1863  -678.3013   813.0344 C5            1 RES     
   24079 C5        -855.3062  -677.3127   814.2109 C5            1 RES     
   24080 C5        -854.9536  -677.8868   815.5921 C5            1 RES     
   24081 C5        -853.4892  -678.3414   815.7454 C5            1 RES     
   24082 C5        -852.4790  -677.2161   815.5003 C5            1 RES     
   24083 C5        -854.9921  -680.9024   811.3377 C5            1 RES     
   24084 C5        -854.0144  -680.0391   810.4934 C5            1 RES     
   24085 C5        -852.6007  -680.6422   810.3330 C5            1 RES     
   24086 C5        -852.5453  -681.9995   809.6041 C5            1 RES     
   24087 C5        -851.1013  -682.5271   809.4181 C5            1 RES     
   24088 C5        -850.2479  -681.6686   808.4587 C5            1 RES     
   24089 C5        -848.8055  -682.1787   808.2766 C5            1 RES     
   24090 C5        -848.7131  -683.5518   807.6112 C5            1 RES     
   24091 H6        -864.8015  -678.6590   801.7120 H6            1 RES     
   24092 H6        -866.2353  -677.6322   801.3815 H6            1 RES     
   24093 H6        -866.4488  -679.2116   802.2258 H6            1 RES     
   24094 H6        -864.9647  -676.7309   803.3361 H6            1 RES     
   24095 H6        -866.6229  -677.2689   803.7799 H6            1 RES     
   24096 H6        -865.0732  -677.9589   805.5127 H6            1 RES     
   24097 H6        -865.7278  -679.4175   804.6849 H6            1 RES     
   24098 H6        -862.9726  -678.0947   804.2091 H6            1 RES     
   24099 H6        -863.5488  -679.5816   803.3576 H6            1 RES     
   24100 H6        -863.2324  -679.2868   806.3871 H6            1 RES     
   24101 H6        -863.7045  -680.8041   805.5238 H6            1 RES     
   24102 H6        -861.4496  -680.7583   804.3153 H6            1 RES     
   24103 H6        -861.0490  -679.2578   805.2192 H6            1 RES     
   24104 H6        -861.3736  -682.0985   806.4239 H6            1 RES     
   24105 H6        -859.8897  -681.0871   806.2484 H6            1 RES     
   24106 H6        -862.3600  -680.5697   808.0010 H6            1 RES     
   24107 H6        -861.1483  -679.3175   807.6819 H6            1 RES     
   24108 H6        -860.8380  -680.2917   809.7522 H6            1 RES     
   24109 H6        -860.5395  -683.0767   808.7924 H6            1 RES     
   24110 H6        -859.8320  -682.5050   810.3552 H6            1 RES     
   24111 H6        -861.8537  -681.5484   811.1164 H6            1 RES     
   24112 H6        -862.7307  -682.0263   809.5664 H6            1 RES     
   24113 H6        -861.9602  -683.7505   811.9678 H6            1 RES     
   24114 H6        -862.8196  -684.3275   810.4744 H6            1 RES     
   24115 H6        -863.7713  -681.9256   812.2424 H6            1 RES     
   24116 H6        -864.5768  -682.5628   810.7734 H6            1 RES     
   24117 H6        -865.0868  -684.6942   811.9719 H6            1 RES     
   24118 H6        -865.8225  -683.2023   812.6616 H6            1 RES     
   24119 H6        -864.1117  -683.0669   814.4317 H6            1 RES     
   24120 H6        -863.3454  -684.5956   813.8254 H6            1 RES     
   24121 H6        -865.0312  -684.6122   814.4799 H6            1 RES     
   24122 H6        -859.0271  -679.2767   808.3590 H6            1 RES     
   24123 H6        -858.3424  -680.9099   808.5922 H6            1 RES     
   24124 H6        -856.7142  -680.0992   809.6808 H6            1 RES     
   24125 H6        -856.6874  -678.5048   810.3348 H6            1 RES     
   24126 H6        -857.0200  -681.1132   811.9980 H6            1 RES     
   24127 H6        -857.2784  -678.9698   813.2307 H6            1 RES     
   24128 H6        -856.0434  -680.0793   813.8930 H6            1 RES     
   24129 H6        -854.1737  -678.7477   813.0367 H6            1 RES     
   24130 H6        -855.2697  -677.7143   812.1005 H6            1 RES     
   24131 H6        -854.6499  -676.4420   814.0084 H6            1 RES     
   24132 H6        -856.3412  -676.9162   814.2564 H6            1 RES     
   24133 H6        -855.6285  -678.7366   815.8260 H6            1 RES     
   24134 H6        -855.1453  -677.0911   816.3449 H6            1 RES     
   24135 H6        -853.2677  -679.1890   815.0648 H6            1 RES     
   24136 H6        -853.3558  -678.7026   816.7875 H6            1 RES     
   24137 H6        -852.6825  -676.3572   816.1752 H6            1 RES     
   24138 H6        -851.4525  -677.5885   815.6980 H6            1 RES     
   24139 H6        -852.5098  -676.8703   814.4465 H6            1 RES     
   24140 H6        -855.2099  -681.7979   810.7166 H6            1 RES     
   24141 H6        -854.4959  -681.2642   812.2644 H6            1 RES     
   24142 H6        -853.8539  -679.0518   810.9464 H6            1 RES     
   24143 H6        -854.4468  -679.8565   809.4866 H6            1 RES     
   24144 H6        -852.0150  -679.8982   809.7573 H6            1 RES     
   24145 H6        -852.1314  -680.7480   811.3361 H6            1 RES     
   24146 H6        -853.0325  -681.9204   808.6081 H6            1 RES     
   24147 H6        -853.1004  -682.7448   810.2091 H6            1 RES     
   24148 H6        -850.5998  -682.5992   810.4081 H6            1 RES     
   24149 H6        -851.1780  -683.5529   808.9959 H6            1 RES     
   24150 H6        -850.1630  -680.6402   808.8622 H6            1 RES     
   24151 H6        -850.7442  -681.6146   807.4651 H6            1 RES     
   24152 H6        -848.2670  -681.4541   807.6263 H6            1 RES     
   24153 H6        -848.2878  -682.2076   809.2595 H6            1 RES     
   24154 H6        -849.1760  -684.3363   808.2426 H6            1 RES     
   24155 H6        -847.6436  -683.8174   807.4672 H6            1 RES     
   24156 H6        -849.2075  -683.5334   806.6169 H6            1 RES     
   24157 C0        -870.8489  -682.8245   806.7469 C0            1 RES     
   24158 C0        -872.2382  -682.0851   806.5853 C0            1 RES     
   24159 C0        -872.0687  -680.7429   806.5288 C0            1 RES     
   24160 S1        -873.4927  -679.8800   806.3175 S1            1 RES     
   24161 C0        -874.4541  -681.2805   806.2768 C0            1 RES     
   24162 C0        -873.6252  -682.3856   806.5177 C0            1 RES     
   24163 C0        -870.7061  -680.4267   806.7469 C0            1 RES     
   24164 C0        -870.0248  -681.5404   806.8925 C0            1 RES     
   24165 C0        -868.6817  -681.2682   807.3215 C0            1 RES     
   24166 C0        -868.4633  -679.9121   807.4833 C0            1 RES     
   24167 S1        -869.8713  -678.8785   807.0427 S1            1 RES     
   24168 H2        -874.0384  -683.3582   806.5900 H2            1 RES     
   24169 H2        -868.0007  -682.0109   807.6129 H2            1 RES     
   24170 N3        -877.8401  -682.6867   805.2769 N3            1 RES     
   24171 C0        -876.5379  -682.5993   805.6686 C0            1 RES     
   24172 C0        -875.9195  -681.3491   805.9367 C0            1 RES     
   24173 C0        -876.7339  -680.2058   805.7877 C0            1 RES     
   24174 N3        -876.3218  -678.9298   806.0052 N3            1 RES     
   24175 S1        -877.6814  -678.0521   805.6780 S1            1 RES     
   24176 N3        -878.7985  -679.1892   805.2574 N3            1 RES     
   24177 C0        -878.0924  -680.3446   805.3777 C0            1 RES     
   24178 C0        -878.6283  -681.5947   805.1224 C0            1 RES     
   24179 H4        -875.9894  -683.5160   805.7340 H4            1 RES     
   24180 C5        -878.1063  -679.4601   799.2714 C5            1 RES     
   24181 C5        -877.5994  -679.1304   800.6753 C5            1 RES     
   24182 C5        -877.0930  -680.3650   801.4403 C5            1 RES     
   24183 C5        -875.8348  -680.9970   800.8170 C5            1 RES     
   24184 C5        -875.3550  -682.1967   801.6482 C5            1 RES     
   24185 C5        -874.0120  -682.7466   801.1195 C5            1 RES     
   24186 C5        -873.4224  -683.9281   801.9350 C5            1 RES     
   24187 C5        -873.3751  -683.5876   803.4255 C5            1 RES     
   24188 C5        -872.4616  -684.4456   804.3367 C5            1 RES     
   24189 C5        -872.8628  -685.9394   804.6466 C5            1 RES     
   24190 C5        -874.0764  -685.8782   805.6152 C5            1 RES     
   24191 C5        -874.8191  -687.0463   806.2746 C5            1 RES     
   24192 C5        -875.9124  -686.3667   807.1634 C5            1 RES     
   24193 C5        -876.8438  -687.2679   807.9722 C5            1 RES     
   24194 C5        -876.1450  -687.9594   809.1363 C5            1 RES     
   24195 C5        -870.9853  -684.0358   804.2339 C5            1 RES     
   24196 C0        -870.2804  -683.9162   805.6471 C0            1 RES     
   24197 C5        -868.7156  -684.1200   805.4562 C5            1 RES     
   24198 C5        -868.0068  -685.2245   806.3155 C5            1 RES     
   24199 C5        -867.5403  -684.7439   807.7201 C5            1 RES     
   24200 C5        -866.2563  -683.8807   807.7280 C5            1 RES     
   24201 C5        -865.9871  -683.1946   809.0817 C5            1 RES     
   24202 C5        -865.5653  -684.1330   810.2233 C5            1 RES     
   24203 C5        -864.2257  -684.8602   809.9970 C5            1 RES     
   24204 C5        -863.0459  -683.9037   809.7969 C5            1 RES     
   24205 C5        -866.8753  -685.9969   805.5324 C5            1 RES     
   24206 C5        -865.8714  -685.1428   804.7098 C5            1 RES     
   24207 C5        -864.6588  -685.9284   804.1619 C5            1 RES     
   24208 C5        -865.0030  -687.0618   803.1752 C5            1 RES     
   24209 C5        -863.7488  -687.7746   802.6122 C5            1 RES     
   24210 C5        -862.8829  -686.8759   801.7020 C5            1 RES     
   24211 C5        -861.6260  -687.5725   801.1466 C5            1 RES     
   24212 C5        -861.9284  -688.7426   800.2105 C5            1 RES     
   24213 H6        -877.2902  -679.8492   798.6299 H6            1 RES     
   24214 H6        -878.5042  -678.5386   798.7966 H6            1 RES     
   24215 H6        -878.9232  -680.2107   799.3268 H6            1 RES     
   24216 H6        -876.7959  -678.3642   800.6128 H6            1 RES     
   24217 H6        -878.4467  -678.6933   801.2476 H6            1 RES     
   24218 H6        -876.8416  -680.0355   802.4734 H6            1 RES     
   24219 H6        -877.9077  -681.1180   801.5074 H6            1 RES     
   24220 H6        -875.0347  -680.2235   800.7912 H6            1 RES     
   24221 H6        -876.0346  -681.3409   799.7816 H6            1 RES     
   24222 H6        -875.2187  -681.8343   802.6894 H6            1 RES     
   24223 H6        -876.1263  -682.9963   801.6423 H6            1 RES     
   24224 H6        -874.1175  -683.0603   800.0588 H6            1 RES     
   24225 H6        -873.2765  -681.9116   801.1551 H6            1 RES     
   24226 H6        -874.0191  -684.8550   801.7958 H6            1 RES     
   24227 H6        -872.3959  -684.1068   801.5484 H6            1 RES     
   24228 H6        -874.4120  -683.5963   803.8104 H6            1 RES     
   24229 H6        -873.0214  -682.5362   803.5264 H6            1 RES     
   24230 H6        -872.6241  -684.0131   805.2562 H6            1 RES     
   24231 H6        -873.0729  -686.4984   803.7106 H6            1 RES     
   24232 H6        -872.0367  -686.4472   805.1916 H6            1 RES     
   24233 H6        -873.6721  -685.3601   806.5051 H6            1 RES     
   24234 H6        -874.8500  -685.2949   805.0880 H6            1 RES     
   24235 H6        -874.1197  -687.6477   806.8948 H6            1 RES     
   24236 H6        -875.2935  -687.6938   805.5084 H6            1 RES     
   24237 H6        -875.4381  -685.6522   807.8773 H6            1 RES     
   24238 H6        -876.5691  -685.7710   806.4919 H6            1 RES     
   24239 H6        -877.3401  -688.0029   807.3066 H6            1 RES     
   24240 H6        -877.6299  -686.6124   808.4135 H6            1 RES     
   24241 H6        -875.6874  -687.2031   809.8122 H6            1 RES     
   24242 H6        -875.3636  -688.6539   808.7720 H6            1 RES     
   24243 H6        -876.8984  -688.5301   809.7204 H6            1 RES     
   24244 H6        -870.8643  -683.0295   803.7777 H6            1 RES     
   24245 H6        -870.5177  -684.7652   803.5379 H6            1 RES     
   24246 H6        -868.6114  -684.5344   804.4355 H6            1 RES     
   24247 H6        -868.1481  -683.1711   805.3828 H6            1 RES     
   24248 H6        -868.7811  -686.0001   806.5125 H6            1 RES     
   24249 H6        -868.3905  -684.1998   808.1819 H6            1 RES     
   24250 H6        -867.3372  -685.6334   808.3549 H6            1 RES     
   24251 H6        -865.3736  -684.4851   807.4451 H6            1 RES     
   24252 H6        -866.3494  -683.0835   806.9669 H6            1 RES     
   24253 H6        -865.1972  -682.4296   808.9386 H6            1 RES     
   24254 H6        -866.8952  -682.6454   809.4047 H6            1 RES     
   24255 H6        -866.3641  -684.8824   810.4045 H6            1 RES     
   24256 H6        -865.4692  -683.5181   811.1448 H6            1 RES     
   24257 H6        -864.2934  -685.5472   809.1285 H6            1 RES     
   24258 H6        -864.0201  -685.4763   810.8983 H6            1 RES     
   24259 H6        -862.9591  -683.2078   810.6586 H6            1 RES     
   24260 H6        -862.1050  -684.4862   809.7139 H6            1 RES     
   24261 H6        -863.1574  -683.3176   808.8614 H6            1 RES     
   24262 H6        -867.3688  -686.6669   804.7956 H6            1 RES     
   24263 H6        -866.3365  -686.6497   806.2532 H6            1 RES     
   24264 H6        -865.4385  -684.3351   805.3149 H6            1 RES     
   24265 H6        -866.3986  -684.6534   803.8634 H6            1 RES     
   24266 H6        -864.0193  -685.1833   803.6482 H6            1 RES     
   24267 H6        -864.0801  -686.3500   805.0134 H6            1 RES     
   24268 H6        -865.6037  -686.6643   802.3285 H6            1 RES     
   24269 H6        -865.6089  -687.8204   803.7109 H6            1 RES     
   24270 H6        -863.1337  -688.1665   803.4517 H6            1 RES     
   24271 H6        -864.1044  -688.6410   802.0127 H6            1 RES     
   24272 H6        -862.5216  -686.0040   802.2824 H6            1 RES     
   24273 H6        -863.4974  -686.5014   800.8543 H6            1 RES     
   24274 H6        -861.0471  -686.8200   800.5664 H6            1 RES     
   24275 H6        -860.9870  -687.9243   801.9850 H6            1 RES     
   24276 H6        -862.4498  -689.5611   800.7459 H6            1 RES     
   24277 H6        -860.9737  -689.1495   799.8130 H6            1 RES     
   24278 H6        -862.5488  -688.4023   799.3545 H6            1 RES     
   24279 C0        -883.2765  -683.9663   803.7763 C0            1 RES     
   24280 C0        -884.4840  -682.9781   804.0382 C0            1 RES     
   24281 C0        -884.0418  -681.7119   804.2247 C0            1 RES     
   24282 S1        -885.2637  -680.5880   804.4707 S1            1 RES     
   24283 C0        -886.4974  -681.7481   804.3311 C0            1 RES     
   24284 C0        -885.8975  -683.0063   804.1784 C0            1 RES     
   24285 C0        -882.6262  -681.7002   804.2369 C0            1 RES     
   24286 C0        -882.1848  -682.9182   804.0193 C0            1 RES     
   24287 C0        -880.7663  -682.9952   804.2289 C0            1 RES     
   24288 C0        -880.2417  -681.7762   804.6183 C0            1 RES     
   24289 S1        -881.4455  -680.4375   804.6759 S1            1 RES     
   24290 H2        -886.4938  -683.8804   804.1291 H2            1 RES     
   24291 H2        -880.2244  -683.8933   804.2268 H2            1 RES     
   24292 N3        -890.2154  -682.2612   803.7346 N3            1 RES     
   24293 C0        -888.8814  -682.4988   803.8786 C0            1 RES     
   24294 C0        -887.9774  -681.4762   804.2718 C0            1 RES     
   24295 C0        -888.5416  -680.2058   804.5177 C0            1 RES     
   24296 N3        -887.8388  -679.1105   804.9071 N3            1 RES     
   24297 S1        -889.0125  -677.9561   805.0325 S1            1 RES     
   24298 N3        -890.3963  -678.7470   804.6116 N3            1 RES     
   24299 C0        -889.9437  -680.0031   804.3565 C0            1 RES     
   24300 C0        -890.7660  -681.0431   803.9597 C0            1 RES     
   24301 H4        -888.5379  -683.4862   803.6495 H4            1 RES     
   24302 C5        -890.6699  -677.7051   798.6766 C5            1 RES     
   24303 C5        -889.9026  -677.8123   799.9943 C5            1 RES     
   24304 C5        -889.5644  -679.2624   800.3803 C5            1 RES     
   24305 C5        -888.5766  -679.9384   799.4118 C5            1 RES     
   24306 C5        -888.2469  -681.3662   799.8736 C5            1 RES     
   24307 C5        -887.1455  -682.0012   798.9964 C5            1 RES     
   24308 C5        -886.7083  -683.4270   799.4257 C5            1 RES     
   24309 C5        -886.3697  -683.4640   800.9170 C5            1 RES     
   24310 C5        -885.5363  -684.6602   801.4419 C5            1 RES     
   24311 C5        -886.1972  -686.0908   801.5124 C5            1 RES     
   24312 C5        -887.2130  -686.0500   802.6876 C5            1 RES     
   24313 C5        -888.0824  -687.1927   803.2255 C5            1 RES     
   24314 C5        -888.8617  -686.5629   804.4269 C5            1 RES     
   24315 C5        -889.8342  -687.4531   805.1987 C5            1 RES     
   24316 C5        -889.1353  -688.5127   806.0415 C5            1 RES     
   24317 C5        -884.0383  -684.5028   801.1433 C5            1 RES     
   24318 C0        -883.1233  -684.8476   802.3892 C0            1 RES     
   24319 C5        -881.6839  -685.2710   801.8642 C5            1 RES     
   24320 C5        -881.1086  -686.6545   802.3284 C5            1 RES     
   24321 C5        -880.3480  -686.6107   803.6852 C5            1 RES     
   24322 C5        -878.9224  -686.0127   803.6221 C5            1 RES     
   24323 C5        -878.3159  -685.7259   805.0097 C5            1 RES     
   24324 C5        -877.9405  -686.9675   805.8338 C5            1 RES     
   24325 C5        -876.8357  -687.8432   805.2114 C5            1 RES     
   24326 C5        -875.5215  -687.0883   804.9876 C5            1 RES     
   24327 C5        -880.2967  -687.4046   801.2021 C5            1 RES     
   24328 C5        -879.2662  -686.5690   800.3936 C5            1 RES     
   24329 C5        -878.3440  -687.4018   799.4750 C5            1 RES     
   24330 C5        -879.0644  -688.1900   798.3630 C5            1 RES     
   24331 C5        -878.0887  -688.9570   797.4367 C5            1 RES     
   24332 C5        -877.1949  -688.0336   796.5796 C5            1 RES     
   24333 C5        -876.2120  -688.7874   795.6634 C5            1 RES     
   24334 C5        -876.8924  -689.6301   794.5846 C5            1 RES     
   24335 H6        -890.0598  -678.0673   797.8249 H6            1 RES     
   24336 H6        -890.9274  -676.6421   798.4847 H6            1 RES     
   24337 H6        -891.6110  -678.2924   798.7338 H6            1 RES     
   24338 H6        -888.9722  -677.2061   799.9361 H6            1 RES     
   24339 H6        -890.5429  -677.3823   800.7954 H6            1 RES     
   24340 H6        -889.0987  -679.2370   801.3910 H6            1 RES     
   24341 H6        -890.5022  -679.8550   800.4479 H6            1 RES     
   24342 H6        -887.6425  -679.3333   799.3909 H6            1 RES     
   24343 H6        -888.9960  -679.9861   798.3861 H6            1 RES     
   24344 H6        -887.8840  -681.2911   800.9209 H6            1 RES     
   24345 H6        -889.1634  -681.9937   799.8532 H6            1 RES     
   24346 H6        -887.4712  -682.0304   797.9344 H6            1 RES     
   24347 H6        -886.2516  -681.3405   799.0594 H6            1 RES     
   24348 H6        -887.5031  -684.1751   799.2179 H6            1 RES     
   24349 H6        -885.8123  -683.6857   798.8212 H6            1 RES     
   24350 H6        -887.3159  -683.3822   801.4836 H6            1 RES     
   24351 H6        -885.7885  -682.5454   801.1599 H6            1 RES     
   24352 H6        -885.4650  -684.4370   802.4438 H6            1 RES     
   24353 H6        -886.6577  -686.3658   800.5403 H6            1 RES     
   24354 H6        -885.4274  -686.8502   801.7737 H6            1 RES     
   24355 H6        -886.5804  -685.8371   803.5698 H6            1 RES     
   24356 H6        -887.9132  -685.2319   802.4486 H6            1 RES     
   24357 H6        -887.4439  -688.0370   803.5643 H6            1 RES     
   24358 H6        -888.7921  -687.5461   802.4491 H6            1 RES     
   24359 H6        -888.1455  -686.1330   805.1667 H6            1 RES     
   24360 H6        -889.4677  -685.7193   804.0294 H6            1 RES     
   24361 H6        -890.5688  -687.9103   804.5053 H6            1 RES     
   24362 H6        -890.3880  -686.7940   805.9067 H6            1 RES     
   24363 H6        -888.4319  -688.0308   806.7565 H6            1 RES     
   24364 H6        -888.5829  -689.2265   805.4004 H6            1 RES     
   24365 H6        -889.8985  -689.0647   806.6307 H6            1 RES     
   24366 H6        -883.7738  -683.4541   800.8869 H6            1 RES     
   24367 H6        -883.8454  -685.1163   800.2369 H6            1 RES     
   24368 H6        -881.8226  -685.4428   800.7799 H6            1 RES     
   24369 H6        -880.9440  -684.4463   801.8779 H6            1 RES     
   24370 H6        -881.9929  -687.3069   802.5082 H6            1 RES     
   24371 H6        -880.9845  -686.0516   804.4024 H6            1 RES     
   24372 H6        -880.2481  -687.6469   804.0746 H6            1 RES     
   24373 H6        -878.2410  -686.6775   803.0580 H6            1 RES     
   24374 H6        -878.9543  -685.0538   803.0714 H6            1 RES     
   24375 H6        -877.4107  -685.0993   804.8765 H6            1 RES     
   24376 H6        -879.0277  -685.1188   805.6058 H6            1 RES     
   24377 H6        -878.8452  -687.5867   806.0085 H6            1 RES     
   24378 H6        -877.5802  -686.6157   806.8252 H6            1 RES     
   24379 H6        -877.1762  -688.2814   804.2508 H6            1 RES     
   24380 H6        -876.6357  -688.6819   805.9120 H6            1 RES     
   24381 H6        -875.1618  -686.6432   805.9400 H6            1 RES     
   24382 H6        -874.7497  -687.7899   804.6088 H6            1 RES     
   24383 H6        -875.6422  -686.2865   804.2302 H6            1 RES     
   24384 H6        -881.0252  -687.7833   800.4531 H6            1 RES     
   24385 H6        -879.8094  -688.2939   801.6580 H6            1 RES     
   24386 H6        -878.5862  -686.0168   801.0559 H6            1 RES     
   24387 H6        -879.7958  -685.8080   799.7817 H6            1 RES     
   24388 H6        -877.6431  -686.6799   799.0107 H6            1 RES     
   24389 H6        -877.7495  -688.1082   800.0956 H6            1 RES     
   24390 H6        -879.6846  -687.5039   797.7463 H6            1 RES     
   24391 H6        -879.7325  -688.9360   798.8392 H6            1 RES     
   24392 H6        -877.4545  -689.6386   798.0450 H6            1 RES     
   24393 H6        -878.7059  -689.5801   796.7531 H6            1 RES     
   24394 H6        -876.5740  -687.4018   797.2451 H6            1 RES     
   24395 H6        -877.8335  -687.3669   795.9599 H6            1 RES     
   24396 H6        -875.5780  -688.0320   795.1485 H6            1 RES     
   24397 H6        -875.5463  -689.4346   796.2742 H6            1 RES     
   24398 H6        -877.4918  -690.4480   795.0321 H6            1 RES     
   24399 H6        -876.1161  -690.0916   793.9370 H6            1 RES     
   24400 H6        -877.5452  -688.9929   793.9511 H6            1 RES     
   24401 C0        -895.9603  -682.1753   803.0767 C0            1 RES     
   24402 C0        -896.8764  -681.0820   803.7609 C0            1 RES     
   24403 C0        -896.1513  -679.9939   804.1128 C0            1 RES     
   24404 S1        -897.0547  -678.7645   804.8122 S1            1 RES     
   24405 C0        -898.5146  -679.6237   804.6788 C0            1 RES     
   24406 C0        -898.2267  -680.8947   804.1610 C0            1 RES     
   24407 C0        -894.7800  -680.2335   803.8553 C0            1 RES     
   24408 C0        -894.6462  -681.4229   803.3138 C0            1 RES     
   24409 C0        -893.2618  -681.7946   803.2272 C0            1 RES     
   24410 C0        -892.4372  -680.8143   803.7485 C0            1 RES     
   24411 S1        -893.3052  -679.3380   804.3072 S1            1 RES     
   24412 H2        -898.9966  -681.6137   804.0502 H2            1 RES     
   24413 H2        -892.9308  -682.7471   802.9383 H2            1 RES     
   24414 N3        -902.3027  -679.3213   804.7151 N3            1 RES     
   24415 C0        -901.0440  -679.8160   804.5490 C0            1 RES     
   24416 C0        -899.8944  -679.0907   804.9612 C0            1 RES     
   24417 C0        -900.1314  -677.8366   805.5641 C0            1 RES     
   24418 N3        -899.1612  -677.0056   806.0261 N3            1 RES     
   24419 S1        -900.0294  -675.7269   806.6067 S1            1 RES     
   24420 N3        -901.5969  -676.1402   806.3071 N3            1 RES     
   24421 C0        -901.4659  -677.3591   805.7197 C0            1 RES     
   24422 C0        -902.5408  -678.1145   805.2848 C0            1 RES     
   24423 H4        -900.9571  -680.7652   804.0622 H4            1 RES     
   24424 C5        -902.5150  -673.6869   800.8736 C5            1 RES     
   24425 C5        -901.6024  -674.2368   801.9696 C5            1 RES     
   24426 C5        -901.5286  -675.7732   801.9802 C5            1 RES     
   24427 C5        -900.8622  -676.3620   800.7232 C5            1 RES     
   24428 C5        -900.7808  -677.8936   800.8127 C5            1 RES     
   24429 C5        -899.9825  -678.4848   799.6299 C5            1 RES     
   24430 C5        -899.8015  -680.0257   799.6680 C5            1 RES     
   24431 C5        -899.2622  -680.4746   801.0272 C5            1 RES     
   24432 C5        -898.6355  -681.8881   801.1278 C5            1 RES     
   24433 C5        -899.5691  -683.1560   801.0311 C5            1 RES     
   24434 C5        -900.3677  -683.2183   802.3627 C5            1 RES     
   24435 C5        -901.3720  -684.2856   802.8133 C5            1 RES     
   24436 C5        -901.8125  -683.8329   804.2445 C5            1 RES     
   24437 C5        -902.8278  -684.6965   804.9909 C5            1 RES     
   24438 C5        -902.2548  -686.0314   805.4503 C5            1 RES     
   24439 C5        -897.1994  -681.9291   800.5857 C5            1 RES     
   24440 C0        -896.2055  -682.7147   801.5361 C0            1 RES     
   24441 C5        -894.9836  -683.2466   800.6697 C5            1 RES     
   24442 C5        -894.6551  -684.7795   800.7234 C5            1 RES     
   24443 C5        -893.7108  -685.1932   801.8890 C5            1 RES     
   24444 C5        -892.2157  -684.8564   801.6765 C5            1 RES     
   24445 C5        -891.3638  -685.0182   802.9508 C5            1 RES     
   24446 C5        -891.1449  -686.4660   803.4172 C5            1 RES     
   24447 C5        -890.3571  -687.3483   802.4295 C5            1 RES     
   24448 C5        -888.9598  -686.8040   802.1161 C5            1 RES     
   24449 C5        -894.1977  -685.3709   799.3336 C5            1 RES     
   24450 C5        -893.1434  -684.5608   798.5297 C5            1 RES     
   24451 C5        -892.5666  -685.2998   797.3013 C5            1 RES     
   24452 C5        -893.5949  -685.6626   796.2115 C5            1 RES     
   24453 C5        -892.9534  -686.3462   794.9789 C5            1 RES     
   24454 C5        -892.0196  -685.4169   794.1725 C5            1 RES     
   24455 C5        -891.3669  -686.0916   792.9508 C5            1 RES     
   24456 C5        -892.3633  -686.5213   791.8741 C5            1 RES     
   24457 H6        -902.1291  -673.9376   799.8651 H6            1 RES     
   24458 H6        -902.5648  -672.5807   800.9551 H6            1 RES     
   24459 H6        -903.5409  -674.0969   800.9895 H6            1 RES     
   24460 H6        -900.5830  -673.8066   801.8586 H6            1 RES     
   24461 H6        -902.0104  -673.9041   802.9491 H6            1 RES     
   24462 H6        -900.9242  -676.0705   802.8664 H6            1 RES     
   24463 H6        -902.5509  -676.1913   802.1044 H6            1 RES     
   24464 H6        -899.8340  -675.9425   800.6471 H6            1 RES     
   24465 H6        -901.4289  -676.0905   799.8092 H6            1 RES     
   24466 H6        -900.2596  -678.1342   801.7638 H6            1 RES     
   24467 H6        -901.8029  -678.3279   800.8413 H6            1 RES     
   24468 H6        -900.4601  -678.2035   798.6669 H6            1 RES     
   24469 H6        -898.9688  -678.0251   799.6534 H6            1 RES     
   24470 H6        -900.7596  -680.5519   799.4688 H6            1 RES     
   24471 H6        -899.0808  -680.2861   798.8630 H6            1 RES     
   24472 H6        -900.0748  -680.3653   801.7695 H6            1 RES     
   24473 H6        -898.4688  -679.7563   801.3359 H6            1 RES     
   24474 H6        -898.3710  -681.9253   802.1215 H6            1 RES     
   24475 H6        -900.2161  -683.1072   800.1302 H6            1 RES     
   24476 H6        -898.9494  -684.0784   800.9798 H6            1 RES     
   24477 H6        -899.5810  -683.3353   803.1316 H6            1 RES     
   24478 H6        -900.9044  -682.2573   802.4341 H6            1 RES     
   24479 H6        -900.8859  -685.2847   802.8442 H6            1 RES     
   24480 H6        -902.2475  -684.3147   802.1321 H6            1 RES     
   24481 H6        -900.9198  -683.7232   804.9048 H6            1 RES     
   24482 H6        -902.2761  -682.8263   804.1509 H6            1 RES     
   24483 H6        -903.7374  -684.8400   804.3731 H6            1 RES     
   24484 H6        -903.1172  -684.1379   805.9110 H6            1 RES     
   24485 H6        -901.3670  -685.8640   806.0999 H6            1 RES     
   24486 H6        -901.9687  -686.6580   804.5836 H6            1 RES     
   24487 H6        -903.0228  -686.5652   806.0501 H6            1 RES     
   24488 H6        -896.7577  -680.9125   800.5022 H6            1 RES     
   24489 H6        -897.2781  -682.3337   799.5536 H6            1 RES     
   24490 H6        -895.3144  -683.1289   799.6203 H6            1 RES     
   24491 H6        -894.0908  -682.5914   800.7088 H6            1 RES     
   24492 H6        -895.6219  -685.2907   800.9330 H6            1 RES     
   24493 H6        -894.1001  -684.7179   802.8135 H6            1 RES     
   24494 H6        -893.7783  -686.2932   802.0328 H6            1 RES     
   24495 H6        -891.7831  -685.4770   800.8689 H6            1 RES     
   24496 H6        -892.1230  -683.8039   801.3492 H6            1 RES     
   24497 H6        -890.3755  -684.5463   802.7767 H6            1 RES     
   24498 H6        -891.8334  -684.4552   803.7833 H6            1 RES     
   24499 H6        -892.1251  -686.9407   803.6325 H6            1 RES     
   24500 H6        -890.5753  -686.4285   804.3716 H6            1 RES     
   24501 H6        -890.9214  -687.4792   801.4833 H6            1 RES     
   24502 H6        -890.2397  -688.3511   802.8930 H6            1 RES     
   24503 H6        -888.3766  -686.6680   803.0520 H6            1 RES     
   24504 H6        -888.4204  -687.5195   801.4615 H6            1 RES     
   24505 H6        -889.0168  -685.8369   801.5752 H6            1 RES     
   24506 H6        -895.0928  -685.4272   798.6772 H6            1 RES     
   24507 H6        -893.8499  -686.4142   799.4968 H6            1 RES     
   24508 H6        -892.2709  -684.3096   799.1475 H6            1 RES     
   24509 H6        -893.5826  -683.5956   798.1988 H6            1 RES     
   24510 H6        -891.8040  -684.6225   796.8680 H6            1 RES     
   24511 H6        -892.0518  -686.2263   797.6393 H6            1 RES     
   24512 H6        -894.1383  -684.7520   795.8781 H6            1 RES     
   24513 H6        -894.3292  -686.3715   796.6451 H6            1 RES     
   24514 H6        -892.3968  -687.2530   795.3025 H6            1 RES     
   24515 H6        -893.7835  -686.6711   794.3142 H6            1 RES     
   24516 H6        -891.1867  -685.0800   794.8208 H6            1 RES     
   24517 H6        -892.5853  -684.5208   793.8357 H6            1 RES     
   24518 H6        -890.6692  -685.3585   792.4885 H6            1 RES     
   24519 H6        -890.7721  -686.9716   793.2777 H6            1 RES     
   24520 H6        -893.0508  -687.3042   792.2522 H6            1 RES     
   24521 H6        -891.8079  -686.9443   791.0095 H6            1 RES     
   24522 H6        -892.9511  -685.6477   791.5209 H6            1 RES     
   24523 C0        -907.9292  -678.0769   805.2033 C0            1 RES     
   24524 C0        -908.4792  -677.0344   806.2586 C0            1 RES     
   24525 C0        -907.4944  -676.2054   806.6787 C0            1 RES     
   24526 S1        -908.0008  -675.0387   807.7738 S1            1 RES     
   24527 C0        -909.6139  -675.5723   807.7510 C0            1 RES     
   24528 C0        -909.6840  -676.7141   806.9399 C0            1 RES     
   24529 C0        -906.2594  -676.6133   806.1196 C0            1 RES     
   24530 C0        -906.4644  -677.6444   805.3320 C0            1 RES     
   24531 C0        -905.2198  -678.2215   804.9075 C0            1 RES     
   24532 C0        -904.1370  -677.5530   805.4493 C0            1 RES     
   24533 S1        -904.5771  -676.1233   806.4527 S1            1 RES     
   24534 H2        -910.5974  -677.2399   806.8349 H2            1 RES     
   24535 H2        -905.1463  -679.1209   804.3728 H2            1 RES     
   24536 N3        -913.2020  -674.6286   808.5743 N3            1 RES     
   24537 C0        -912.1167  -675.2823   808.0726 C0            1 RES     
   24538 C0        -910.7908  -674.8885   808.3953 C0            1 RES     
   24539 C0        -910.6625  -673.7919   809.2749 C0            1 RES     
   24540 N3        -909.4798  -673.2776   809.7014 N3            1 RES     
   24541 S1        -909.9592  -672.0417   810.6857 S1            1 RES     
   24542 N3        -911.6054  -672.0910   810.6147 N3            1 RES     
   24543 C0        -911.8262  -673.1390   809.7775 C0            1 RES     
   24544 C0        -913.0899  -673.5692   809.4125 C0            1 RES     
   24545 H4        -912.3076  -676.0888   807.3953 H4            1 RES     
   24546 C5        -912.7703  -668.2955   806.0736 C5            1 RES     
   24547 C5        -911.8446  -669.2410   806.8388 C5            1 RES     
   24548 C5        -912.1002  -670.7244   806.5222 C5            1 RES     
   24549 C5        -911.7682  -671.1051   805.0676 C5            1 RES     
   24550 C5        -912.0036  -672.6040   804.8262 C5            1 RES     
   24551 C5        -911.5337  -673.0277   803.4171 C5            1 RES     
   24552 C5        -911.6826  -674.5407   803.1053 C5            1 RES     
   24553 C5        -911.0570  -675.3869   804.2154 C5            1 RES     
   24554 C5        -910.7391  -676.8711   803.9040 C5            1 RES     
   24555 C5        -911.9258  -677.8961   803.7323 C5            1 RES     
   24556 C5        -912.5136  -678.1321   805.1512 C5            1 RES     
   24557 C5        -913.6450  -679.0831   805.5594 C5            1 RES     
   24558 C5        -913.7622  -678.9134   807.1101 C5            1 RES     
   24559 C5        -914.8170  -679.7380   807.8458 C5            1 RES     
   24560 C5        -914.4811  -681.2229   807.9052 C5            1 RES     
   24561 C5        -909.4411  -677.0330   803.0997 C5            1 RES     
   24562 C0        -908.5088  -678.1834   803.6615 C0            1 RES     
   24563 C5        -907.5704  -678.6997   802.4870 C5            1 RES     
   24564 C5        -907.5729  -680.2347   802.1635 C5            1 RES     
   24565 C5        -906.5773  -681.0721   803.0171 C5            1 RES     
   24566 C5        -905.0929  -680.9617   802.5949 C5            1 RES     
   24567 C5        -904.1166  -681.5682   803.6218 C5            1 RES     
   24568 C5        -904.1457  -683.1006   803.7330 C5            1 RES     
   24569 C5        -903.7194  -683.8470   802.4539 C5            1 RES     
   24570 C5        -902.3000  -683.4971   801.9957 C5            1 RES     
   24571 C5        -907.4629  -680.5496   800.6211 C5            1 RES     
   24572 C5        -906.3904  -679.7693   799.8119 C5            1 RES     
   24573 C5        -906.1727  -680.2845   798.3714 C5            1 RES     
   24574 C5        -907.4042  -680.1923   797.4485 C5            1 RES     
   24575 C5        -907.1129  -680.6650   796.0029 C5            1 RES     
   24576 C5        -906.1317  -679.7490   795.2386 C5            1 RES     
   24577 C5        -905.8260  -680.2177   793.8031 C5            1 RES     
   24578 C5        -907.0391  -680.1981   792.8732 C5            1 RES     
   24579 H6        -912.6002  -668.3630   804.9803 H6            1 RES     
   24580 H6        -912.5700  -667.2491   806.3866 H6            1 RES     
   24581 H6        -913.8314  -668.5351   806.2983 H6            1 RES     
   24582 H6        -910.7847  -668.9822   806.6242 H6            1 RES     
   24583 H6        -912.0229  -669.0843   807.9252 H6            1 RES     
   24584 H6        -911.4492  -671.3249   807.1964 H6            1 RES     
   24585 H6        -913.1583  -670.9744   806.7524 H6            1 RES     
   24586 H6        -910.6968  -670.8662   804.8826 H6            1 RES     
   24587 H6        -912.3924  -670.5293   804.3541 H6            1 RES     
   24588 H6        -911.4112  -673.1511   805.5903 H6            1 RES     
   24589 H6        -913.0792  -672.8468   804.9614 H6            1 RES     
   24590 H6        -912.0770  -672.4465   802.6414 H6            1 RES     
   24591 H6        -910.4531  -672.7715   803.3387 H6            1 RES     
   24592 H6        -912.7497  -674.8284   802.9908 H6            1 RES     
   24593 H6        -911.1612  -674.7245   802.1412 H6            1 RES     
   24594 H6        -911.7087  -675.3165   805.1062 H6            1 RES     
   24595 H6        -910.0917  -674.9129   804.5058 H6            1 RES     
   24596 H6        -910.3448  -677.1890   804.7998 H6            1 RES     
   24597 H6        -912.6732  -677.5221   803.0014 H6            1 RES     
   24598 H6        -911.5321  -678.8738   803.3763 H6            1 RES     
   24599 H6        -911.6654  -678.5643   805.7147 H6            1 RES     
   24600 H6        -912.8160  -677.1369   805.5184 H6            1 RES     
   24601 H6        -913.3845  -680.1301   805.2924 H6            1 RES     
   24602 H6        -914.5972  -678.7957   805.0675 H6            1 RES     
   24603 H6        -912.7792  -679.1217   807.5951 H6            1 RES     
   24604 H6        -914.0087  -677.8481   807.3141 H6            1 RES     
   24605 H6        -915.8172  -679.5690   807.3980 H6            1 RES     
   24606 H6        -914.8412  -679.3722   808.8984 H6            1 RES     
   24607 H6        -913.4920  -681.3728   808.3926 H6            1 RES     
   24608 H6        -914.4667  -681.6658   806.8906 H6            1 RES     
   24609 H6        -915.2482  -681.7410   808.5197 H6            1 RES     
   24610 H6        -908.8096  -676.1192   803.1417 H6            1 RES     
   24611 H6        -909.7560  -677.1606   802.0415 H6            1 RES     
   24612 H6        -908.0197  -678.2801   801.5669 H6            1 RES     
   24613 H6        -906.5625  -678.2394   802.4865 H6            1 RES     
   24614 H6        -908.5848  -680.6035   802.4462 H6            1 RES     
   24615 H6        -906.7150  -680.7695   804.0762 H6            1 RES     
   24616 H6        -906.8563  -682.1456   802.9443 H6            1 RES     
   24617 H6        -904.9270  -681.4386   801.6102 H6            1 RES     
   24618 H6        -904.8268  -679.8945   802.4770 H6            1 RES     
   24619 H6        -903.0871  -681.2491   803.3611 H6            1 RES     
   24620 H6        -904.3268  -681.1458   804.6258 H6            1 RES     
   24621 H6        -905.1619  -683.4337   804.0312 H6            1 RES     
   24622 H6        -903.4467  -683.3913   804.5475 H6            1 RES     
   24623 H6        -904.4321  -683.6484   801.6272 H6            1 RES     
   24624 H6        -903.7519  -684.9357   802.6723 H6            1 RES     
   24625 H6        -901.5696  -683.6916   802.8100 H6            1 RES     
   24626 H6        -902.0287  -684.1197   801.1181 H6            1 RES     
   24627 H6        -902.2283  -682.4346   801.6842 H6            1 RES     
   24628 H6        -908.4362  -680.2908   800.1511 H6            1 RES     
   24629 H6        -907.3258  -681.6461   800.4986 H6            1 RES     
   24630 H6        -905.4029  -679.8288   800.2886 H6            1 RES     
   24631 H6        -906.6571  -678.6916   799.7748 H6            1 RES     
   24632 H6        -905.3556  -679.6680   797.9469 H6            1 RES     
   24633 H6        -905.8237  -681.3402   798.4085 H6            1 RES     
   24634 H6        -907.7836  -679.1478   797.4180 H6            1 RES     
   24635 H6        -908.2007  -680.8440   797.8614 H6            1 RES     
   24636 H6        -906.7214  -681.7057   796.0222 H6            1 RES     
   24637 H6        -908.0821  -680.6721   795.4579 H6            1 RES     
   24638 H6        -905.1596  -679.7269   795.7698 H6            1 RES     
   24639 H6        -906.5362  -678.7138   795.2062 H6            1 RES     
   24640 H6        -905.0638  -679.5297   793.3747 H6            1 RES     
   24641 H6        -905.3914  -681.2403   793.8238 H6            1 RES     
   24642 H6        -907.8144  -680.9155   793.2088 H6            1 RES     
   24643 H6        -906.7209  -680.4941   791.8504 H6            1 RES     
   24644 H6        -907.4722  -679.1765   792.8246 H6            1 RES     
   24645 C0        -918.2972  -672.5704   810.3759 C0            1 RES     
   24646 C0        -918.4497  -671.7287   811.7067 C0            1 RES     
   24647 C0        -917.2595  -671.2089   812.0899 C0            1 RES     
   24648 S1        -917.3375  -670.2656   813.4759 S1            1 RES     
   24649 C0        -919.0126  -670.4875   813.6549 C0            1 RES     
   24650 C0        -919.4441  -671.3735   812.6573 C0            1 RES     
   24651 C0        -916.2367  -671.6820   811.2331 C0            1 RES     
   24652 C0        -916.7713  -672.4443   810.3064 C0            1 RES     
   24653 C0        -915.7554  -673.1127   809.5425 C0            1 RES     
   24654 C0        -914.4869  -672.7923   809.9910 C0            1 RES     
   24655 S1        -914.4582  -671.5875   811.3298 S1            1 RES     
   24656 H2        -920.4540  -671.6911   812.6247 H2            1 RES     
   24657 H2        -915.9557  -673.8579   808.8321 H2            1 RES     
   24658 N3        -922.1542  -669.1532   815.3259 N3            1 RES     
   24659 C0        -921.3200  -669.8486   814.5029 C0            1 RES     
   24660 C0        -919.9078  -669.7812   814.6385 C0            1 RES     
   24661 C0        -919.4197  -668.9648   815.6816 C0            1 RES     
   24662 N3        -918.1046  -668.7819   815.9688 N3            1 RES     
   24663 S1        -918.1581  -667.7509   817.2573 S1            1 RES     
   24664 N3        -919.7688  -667.4929   817.4950 N3            1 RES     
   24665 C0        -920.3296  -668.2566   816.5203 C0            1 RES     
   24666 C0        -921.6958  -668.3597   816.3248 C0            1 RES     
   24667 H4        -921.7767  -670.4248   813.7252 H4            1 RES     
   24668 C5        -920.7534  -662.5836   814.1312 C5            1 RES     
   24669 C5        -919.9485  -663.8310   814.4958 C5            1 RES     
   24670 C5        -920.5590  -665.1283   813.9389 C5            1 RES     
   24671 C5        -920.5346  -665.2047   812.4013 C5            1 RES     
   24672 C5        -921.1179  -666.5382   811.9096 C5            1 RES     
   24673 C5        -920.9628  -666.6906   810.3804 C5            1 RES     
   24674 C5        -921.4760  -668.0360   809.8016 C5            1 RES     
   24675 C5        -920.8888  -669.2179   810.5751 C5            1 RES     
   24676 C5        -920.9449  -670.6176   809.9131 C5            1 RES     
   24677 C5        -922.3353  -671.3484   809.7673 C5            1 RES     
   24678 C5        -922.7438  -671.8080   811.1944 C5            1 RES     
   24679 C5        -923.9792  -672.6155   811.6098 C5            1 RES     
   24680 C5        -923.8271  -672.8012   813.1556 C5            1 RES     
   24681 C5        -924.9133  -673.5791   813.8965 C5            1 RES     
   24682 C5        -924.8975  -675.0709   813.5868 C5            1 RES     
   24683 C5        -919.8448  -670.8085   808.8588 C5            1 RES     
   24684 C0        -919.1075  -672.2044   808.9852 C0            1 RES     
   24685 C5        -918.4851  -672.5830   807.5724 C5            1 RES     
   24686 C5        -918.8633  -673.9723   806.9499 C5            1 RES     
   24687 C5        -917.9547  -675.1496   807.4080 C5            1 RES     
   24688 C5        -916.5601  -675.2037   806.7402 C5            1 RES     
   24689 C5        -915.5952  -676.1981   807.4154 C5            1 RES     
   24690 C5        -915.9344  -677.6836   807.2157 C5            1 RES     
   24691 C5        -915.8711  -678.1675   805.7540 C5            1 RES     
   24692 C5        -914.4934  -677.9730   805.1129 C5            1 RES     
   24693 C5        -919.0521  -673.9261   805.3838 C5            1 RES     
   24694 C5        -917.9692  -673.1761   804.5599 C5            1 RES     
   24695 C5        -918.0819  -673.3643   803.0303 C5            1 RES     
   24696 C5        -919.3877  -672.8414   802.3994 C5            1 RES     
   24697 C5        -919.4210  -673.0006   800.8594 C5            1 RES     
   24698 C5        -918.3906  -672.1156   800.1238 C5            1 RES     
   24699 C5        -918.4075  -672.2760   798.5915 C5            1 RES     
   24700 C5        -919.7121  -671.8239   797.9355 C5            1 RES     
   24701 H6        -920.7649  -662.4182   813.0352 H6            1 RES     
   24702 H6        -920.2900  -661.6933   814.6063 H6            1 RES     
   24703 H6        -921.7960  -662.6801   814.5018 H6            1 RES     
   24704 H6        -918.9013  -663.7182   814.1391 H6            1 RES     
   24705 H6        -919.9267  -663.9081   815.6049 H6            1 RES     
   24706 H6        -919.9591  -665.9762   814.3392 H6            1 RES     
   24707 H6        -921.6003  -665.2365   814.3122 H6            1 RES     
   24708 H6        -919.4763  -665.1201   812.0667 H6            1 RES     
   24709 H6        -921.1197  -664.3757   811.9532 H6            1 RES     
   24710 H6        -920.5500  -667.3462   812.4182 H6            1 RES     
   24711 H6        -922.1885  -666.6139   812.1963 H6            1 RES     
   24712 H6        -921.4779  -665.8559   809.8582 H6            1 RES     
   24713 H6        -919.8762  -666.6164   810.1498 H6            1 RES     
   24714 H6        -922.5849  -668.0969   809.8379 H6            1 RES     
   24715 H6        -921.1542  -668.0739   808.7385 H6            1 RES     
   24716 H6        -921.3715  -669.2481   811.5698 H6            1 RES     
   24717 H6        -919.8124  -669.0029   810.7651 H6            1 RES     
   24718 H6        -920.4998  -671.2032   810.6327 H6            1 RES     
   24719 H6        -923.0851  -670.6866   809.2852 H6            1 RES     
   24720 H6        -922.2166  -672.2669   809.1510 H6            1 RES     
   24721 H6        -921.9338  -672.5033   811.4846 H6            1 RES     
   24722 H6        -922.7688  -670.8914   811.8074 H6            1 RES     
   24723 H6        -923.9908  -673.5981   811.0904 H6            1 RES     
   24724 H6        -924.9100  -672.0573   811.3787 H6            1 RES     
   24725 H6        -922.8507  -673.2876   813.3902 H6            1 RES     
   24726 H6        -923.8074  -671.7887   813.6155 H6            1 RES     
   24727 H6        -925.9092  -673.1362   813.6929 H6            1 RES     
   24728 H6        -924.7030  -673.4754   814.9862 H6            1 RES     
   24729 H6        -923.9024  -675.5030   813.8345 H6            1 RES     
   24730 H6        -925.1280  -675.2555   812.5199 H6            1 RES     
   24731 H6        -925.6582  -675.5775   814.2186 H6            1 RES     
   24732 H6        -919.0336  -670.0560   808.9640 H6            1 RES     
   24733 H6        -920.3325  -670.6239   807.8774 H6            1 RES     
   24734 H6        -918.9652  -671.8848   806.8607 H6            1 RES     
   24735 H6        -917.4135  -672.3196   807.4723 H6            1 RES     
   24736 H6        -919.8776  -674.2147   807.3404 H6            1 RES     
   24737 H6        -917.8667  -675.0879   808.5128 H6            1 RES     
   24738 H6        -918.4643  -676.1091   807.1731 H6            1 RES     
   24739 H6        -916.6473  -675.4545   805.6659 H6            1 RES     
   24740 H6        -916.0925  -674.2027   806.7932 H6            1 RES     
   24741 H6        -914.5713  -676.0115   807.0325 H6            1 RES     
   24742 H6        -915.5596  -675.9962   808.5056 H6            1 RES     
   24743 H6        -916.9428  -677.8947   807.6293 H6            1 RES     
   24744 H6        -915.2012  -678.2772   807.8045 H6            1 RES     
   24745 H6        -916.6390  -677.6566   805.1375 H6            1 RES     
   24746 H6        -916.1029  -679.2540   805.7483 H6            1 RES     
   24747 H6        -913.7093  -678.4801   805.7150 H6            1 RES     
   24748 H6        -914.4941  -678.4069   804.0916 H6            1 RES     
   24749 H6        -914.2431  -676.8963   805.0164 H6            1 RES     
   24750 H6        -920.0062  -673.3967   805.1721 H6            1 RES     
   24751 H6        -919.1722  -674.9687   805.0168 H6            1 RES     
   24752 H6        -916.9580  -673.5192   804.8161 H6            1 RES     
   24753 H6        -918.0020  -672.0909   804.7949 H6            1 RES     
   24754 H6        -917.2238  -672.8175   802.5915 H6            1 RES     
   24755 H6        -917.9650  -674.4430   802.7841 H6            1 RES     
   24756 H6        -919.5354  -671.7697   802.6555 H6            1 RES     
   24757 H6        -920.2352  -673.4227   802.8160 H6            1 RES     
   24758 H6        -919.2625  -674.0681   800.5910 H6            1 RES     
   24759 H6        -920.4389  -672.7082   800.5206 H6            1 RES     
   24760 H6        -917.3687  -672.3910   800.4517 H6            1 RES     
   24761 H6        -918.5647  -671.0480   800.3810 H6            1 RES     
   24762 H6        -917.5878  -671.6503   798.1740 H6            1 RES     
   24763 H6        -918.2034  -673.3341   798.3198 H6            1 RES     
   24764 H6        -920.5646  -672.4533   798.2604 H6            1 RES     
   24765 H6        -919.6192  -671.9195   796.8322 H6            1 RES     
   24766 H6        -919.9193  -670.7605   798.1799 H6            1 RES     
   24767 C0        -926.3686  -666.7224   818.4522 C0            1 RES     
   24768 C0        -926.1394  -666.2077   819.9305 C0            1 RES     
   24769 C0        -924.8224  -666.0104   820.1758 C0            1 RES     
   24770 S1        -924.4914  -665.4247   821.7134 S1            1 RES     
   24771 C0        -926.1300  -665.3859   822.1615 C0            1 RES     
   24772 C0        -926.8834  -665.9199   821.1062 C0            1 RES     
   24773 C0        -924.0623  -666.4380   819.0607 C0            1 RES     
   24774 C0        -924.8784  -666.8525   818.1184 C0            1 RES     
   24775 C0        -924.1530  -667.4876   817.0541 C0            1 RES     
   24776 C0        -922.7934  -667.5102   817.3064 C0            1 RES     
   24777 S1        -922.3105  -666.6821   818.8315 S1            1 RES     
   24778 H2        -927.9313  -666.0387   821.2041 H2            1 RES     
   24779 H2        -924.6106  -667.9958   816.2587 H2            1 RES     
   24780 N3        -928.6318  -663.9579   824.6403 N3            1 RES     
   24781 C0        -928.0964  -664.5729   823.5485 C0            1 RES     
   24782 C0        -926.6982  -664.7880   823.4214 C0            1 RES     
   24783 C0        -925.8983  -664.3412   824.4954 C0            1 RES     
   24784 N3        -924.5469  -664.4649   824.5560 N3            1 RES     
   24785 S1        -924.1879  -663.7766   826.0131 S1            1 RES     
   24786 N3        -925.6531  -663.3045   826.6030 N3            1 RES     
   24787 C0        -926.5018  -663.7045   825.6193 C0            1 RES     
   24788 C0        -927.8720  -663.5173   825.6728 C0            1 RES     
   24789 H4        -928.7754  -664.8587   822.7722 H4            1 RES     
   24790 C5        -926.0516  -657.6424   824.5616 C5            1 RES     
   24791 C5        -925.4870  -659.0617   824.5033 C5            1 RES     
   24792 C5        -926.4361  -660.0621   823.8218 C5            1 RES     
   24793 C5        -926.6560  -659.7741   822.3252 C5            1 RES     
   24794 C5        -927.5768  -660.8293   821.6937 C5            1 RES     
   24795 C5        -927.6855  -660.6387   820.1648 C5            1 RES     
   24796 C5        -928.5541  -661.6969   819.4338 C5            1 RES     
   24797 C5        -928.1253  -663.1127   819.8232 C5            1 RES     
   24798 C5        -928.5764  -664.2830   818.9134 C5            1 RES     
   24799 C5        -930.0968  -664.7031   818.8915 C5            1 RES     
   24800 C5        -930.3787  -665.4098   820.2464 C5            1 RES     
   24801 C5        -931.6829  -666.0636   820.7180 C5            1 RES     
   24802 C5        -931.3474  -666.6349   822.1351 C5            1 RES     
   24803 C5        -932.4531  -667.3639   822.8965 C5            1 RES     
   24804 C5        -932.8023  -668.7185   822.2926 C5            1 RES     
   24805 C5        -927.7106  -664.4076   817.6513 C5            1 RES     
   24806 C0        -927.2782  -665.9005   817.3470 C0            1 RES     
   24807 C5        -926.9668  -666.0356   815.7941 C5            1 RES     
   24808 C5        -927.7209  -667.1489   814.9863 C5            1 RES     
   24809 C5        -927.0274  -668.5417   815.0121 C5            1 RES     
   24810 C5        -925.7909  -668.6790   814.0924 C5            1 RES     
   24811 C5        -924.9719  -669.9584   814.3531 C5            1 RES     
   24812 C5        -925.6464  -671.2709   813.9241 C5            1 RES     
   24813 C5        -925.9045  -671.3971   812.4102 C5            1 RES     
   24814 C5        -924.6272  -671.3002   811.5699 C5            1 RES     
   24815 C5        -928.1247  -666.6997   813.5284 C5            1 RES     
   24816 C5        -927.0403  -665.9770   812.6822 C5            1 RES     
   24817 C5        -927.4153  -665.7737   811.1970 C5            1 RES     
   24818 C5        -928.6577  -664.8955   810.9483 C5            1 RES     
   24819 C5        -928.9513  -664.6760   809.4437 C5            1 RES     
   24820 C5        -927.8758  -663.8361   808.7198 C5            1 RES     
   24821 C5        -928.1528  -663.6224   807.2194 C5            1 RES     
   24822 C5        -929.4129  -662.8062   806.9318 C5            1 RES     
   24823 H6        -926.1893  -657.2220   823.5452 H6            1 RES     
   24824 H6        -925.3437  -656.9857   825.1099 H6            1 RES     
   24825 H6        -927.0244  -657.6401   825.0978 H6            1 RES     
   24826 H6        -924.5044  -659.0527   823.9828 H6            1 RES     
   24827 H6        -925.3186  -659.4027   825.5483 H6            1 RES     
   24828 H6        -925.9789  -661.0723   823.9183 H6            1 RES     
   24829 H6        -927.4096  -660.0718   824.3579 H6            1 RES     
   24830 H6        -925.6653  -659.7991   821.8182 H6            1 RES     
   24831 H6        -927.1100  -658.7731   822.1761 H6            1 RES     
   24832 H6        -927.1259  -661.8215   821.9085 H6            1 RES     
   24833 H6        -928.5845  -660.7822   822.1590 H6            1 RES     
   24834 H6        -928.0816  -659.6270   819.9321 H6            1 RES     
   24835 H6        -926.6544  -660.7034   819.7500 H6            1 RES     
   24836 H6        -929.6325  -661.5695   819.6690 H6            1 RES     
   24837 H6        -928.4085  -661.5369   818.3436 H6            1 RES     
   24838 H6        -928.4510  -663.2933   820.8646 H6            1 RES     
   24839 H6        -927.0119  -663.1410   819.8428 H6            1 RES     
   24840 H6        -928.1654  -665.0914   819.3997 H6            1 RES     
   24841 H6        -930.7506  -663.8250   818.7072 H6            1 RES     
   24842 H6        -930.2695  -665.4551   818.0901 H6            1 RES     
   24843 H6        -929.7022  -666.2849   820.2281 H6            1 RES     
   24844 H6        -930.1165  -664.6752   821.0264 H6            1 RES     
   24845 H6        -931.9808  -666.8770   820.0216 H6            1 RES     
   24846 H6        -932.4966  -665.3124   820.7884 H6            1 RES     
   24847 H6        -930.4738  -667.3264   822.0740 H6            1 RES     
   24848 H6        -931.0440  -665.7802   822.7790 H6            1 RES     
   24849 H6        -933.3502  -666.7180   822.9823 H6            1 RES     
   24850 H6        -932.0669  -667.5606   823.9235 H6            1 RES     
   24851 H6        -931.8972  -669.3644   822.2514 H6            1 RES     
   24852 H6        -933.2220  -668.6011   821.2749 H6            1 RES     
   24853 H6        -933.5519  -669.2194   822.9420 H6            1 RES     
   24854 H6        -926.7509  -663.8556   817.7498 H6            1 RES     
   24855 H6        -928.2871  -663.9127   816.8402 H6            1 RES     
   24856 H6        -927.3863  -665.1153   815.3451 H6            1 RES     
   24857 H6        -925.8905  -665.9477   815.5460 H6            1 RES     
   24858 H6        -928.6944  -667.2957   815.5065 H6            1 RES     
   24859 H6        -926.7660  -668.7606   816.0685 H6            1 RES     
   24860 H6        -927.7593  -669.3134   814.6891 H6            1 RES     
   24861 H6        -926.0873  -668.6481   813.0267 H6            1 RES     
   24862 H6        -925.1175  -667.8170   814.2572 H6            1 RES     
   24863 H6        -923.9998  -669.8685   813.8269 H6            1 RES     
   24864 H6        -924.7333  -670.0307   815.4340 H6            1 RES     
   24865 H6        -926.6042  -671.3943   814.4717 H6            1 RES     
   24866 H6        -924.9782  -672.1063   814.2279 H6            1 RES     
   24867 H6        -926.6280  -670.6280   812.0696 H6            1 RES     
   24868 H6        -926.3614  -672.3933   812.2280 H6            1 RES     
   24869 H6        -923.8895  -672.0651   811.8942 H6            1 RES     
   24870 H6        -924.8715  -671.4720   810.5011 H6            1 RES     
   24871 H6        -924.1697  -670.2924   811.6483 H6            1 RES     
   24872 H6        -928.9641  -665.9765   813.6159 H6            1 RES     
   24873 H6        -928.5176  -667.5876   812.9868 H6            1 RES     
   24874 H6        -926.0993  -666.5427   812.6643 H6            1 RES     
   24875 H6        -926.8054  -664.9902   813.1350 H6            1 RES     
   24876 H6        -926.5346  -665.2973   810.7223 H6            1 RES     
   24877 H6        -927.5692  -666.7663   810.7187 H6            1 RES     
   24878 H6        -928.5335  -663.9066   811.4406 H6            1 RES     
   24879 H6        -929.5388  -665.4015   811.3925 H6            1 RES     
   24880 H6        -929.0660  -665.6599   808.9383 H6            1 RES     
   24881 H6        -929.9219  -664.1379   809.3733 H6            1 RES     
   24882 H6        -926.8994  -664.3560   808.7825 H6            1 RES     
   24883 H6        -927.7778  -662.8467   809.2175 H6            1 RES     
   24884 H6        -927.2892  -663.0689   806.7885 H6            1 RES     
   24885 H6        -928.2219  -664.6045   806.7040 H6            1 RES     
   24886 H6        -930.3226  -663.3354   807.2793 H6            1 RES     
   24887 H6        -929.5065  -662.6517   805.8354 H6            1 RES     
   24888 H6        -929.3495  -661.8119   807.4227 H6            1 RES     
   24889 C0        -931.7203  -661.6400   828.9452 C0            1 RES     
   24890 C0        -931.1706  -661.5395   830.4253 C0            1 RES     
   24891 C0        -929.8204  -661.6399   830.4482 C0            1 RES     
   24892 S1        -929.1485  -661.5035   831.9802 S1            1 RES     
   24893 C0        -930.6564  -661.2860   832.7327 C0            1 RES     
   24894 C0        -931.6539  -661.4136   831.7554 C0            1 RES     
   24895 C0        -929.3425  -661.9167   829.1447 C0            1 RES     
   24896 C0        -930.3583  -661.9460   828.3122 C0            1 RES     
   24897 C0        -929.9508  -662.4270   827.0220 C0            1 RES     
   24898 C0        -928.6054  -662.7466   826.9987 C0            1 RES     
   24899 S1        -927.7369  -662.4023   828.5388 S1            1 RES     
   24900 H2        -932.6768  -661.3669   832.0262 H2            1 RES     
   24901 H2        -930.6188  -662.6435   826.2427 H2            1 RES     
   24902 N3        -932.4010  -660.0723   835.8832 N3            1 RES     
   24903 C0        -932.1767  -660.4943   834.6071 C0            1 RES     
   24904 C0        -930.8912  -660.9145   834.1730 C0            1 RES     
   24905 C0        -929.8647  -660.8828   835.1415 C0            1 RES     
   24906 N3        -928.5772  -661.2520   834.9152 N3            1 RES     
   24907 S1        -927.8682  -661.0033   836.3854 S1            1 RES     
   24908 N3        -929.0951  -660.4358   837.3290 N3            1 RES     
   24909 C0        -930.1454  -660.4357   836.4660 C0            1 RES     
   24910 C0        -931.4206  -660.0297   836.8184 C0            1 RES     
   24911 H4        -933.0081  -660.4641   833.9339 H4            1 RES     
   24912 C5        -928.5714  -654.4712   836.5979 C5            1 RES     
   24913 C5        -928.3381  -655.9124   836.1448 C5            1 RES     
   24914 C5        -929.5691  -656.5401   835.4689 C5            1 RES     
   24915 C5        -929.9409  -655.8709   834.1329 C5            1 RES     
   24916 C5        -931.1489  -656.5678   833.4885 C5            1 RES     
   24917 C5        -931.4390  -656.0035   832.0803 C5            1 RES     
   24918 C5        -932.6118  -656.6889   831.3298 C5            1 RES     
   24919 C5        -932.4428  -658.2092   831.3332 C5            1 RES     
   24920 C5        -933.2629  -659.0322   830.3081 C5            1 RES     
   24921 C5        -934.8241  -659.1622   830.4933 C5            1 RES     
   24922 C5        -935.0472  -660.1099   831.7044 C5            1 RES     
   24923 C5        -936.3767  -660.6182   832.2744 C5            1 RES     
   24924 C5        -935.9655  -661.5594   833.4543 C5            1 RES     
   24925 C5        -937.0765  -662.2433   834.2490 C5            1 RES     
   24926 C5        -937.7925  -663.3329   833.4605 C5            1 RES     
   24927 C5        -932.6399  -659.0031   828.9049 C5            1 RES     
   24928 C0        -932.5863  -660.4329   828.2260 C0            1 RES     
   24929 C5        -932.5438  -660.2476   826.6478 C5            1 RES     
   24930 C5        -933.6292  -660.9874   825.7903 C5            1 RES     
   24931 C5        -933.2534  -662.4457   825.3986 C5            1 RES     
   24932 C5        -932.2245  -662.5749   824.2503 C5            1 RES     
   24933 C5        -931.6685  -664.0027   824.0831 C5            1 RES     
   24934 C5        -932.6637  -665.0368   823.5335 C5            1 RES     
   24935 C5        -933.1636  -664.7525   822.1038 C5            1 RES     
   24936 C5        -932.0335  -664.6839   821.0717 C5            1 RES     
   24937 C5        -934.1385  -660.1411   824.5595 C5            1 RES     
   24938 C5        -933.0619  -659.4395   823.6862 C5            1 RES     
   24939 C5        -933.5999  -658.8268   822.3735 C5            1 RES     
   24940 C5        -934.6487  -657.7111   822.5519 C5            1 RES     
   24941 C5        -935.1075  -657.0925   821.2084 C5            1 RES     
   24942 C5        -933.9964  -656.3064   820.4780 C5            1 RES     
   24943 C5        -934.4399  -655.6973   819.1341 C5            1 RES     
   24944 C5        -935.5247  -654.6285   819.2660 C5            1 RES     
   24945 H6        -928.7646  -653.8039   835.7341 H6            1 RES     
   24946 H6        -927.6665  -654.0980   837.1222 H6            1 RES     
   24947 H6        -929.4311  -654.4260   837.2999 H6            1 RES     
   24948 H6        -927.4642  -655.9521   835.4583 H6            1 RES     
   24949 H6        -928.0941  -656.5159   837.0463 H6            1 RES     
   24950 H6        -929.3292  -657.6083   835.2683 H6            1 RES     
   24951 H6        -930.4321  -656.5063   836.1685 H6            1 RES     
   24952 H6        -929.0645  -655.9478   833.4510 H6            1 RES     
   24953 H6        -930.1874  -654.7996   834.2806 H6            1 RES     
   24954 H6        -930.8938  -657.6459   833.4064 H6            1 RES     
   24955 H6        -932.0432  -656.4570   834.1383 H6            1 RES     
   24956 H6        -931.6396  -654.9122   832.1389 H6            1 RES     
   24957 H6        -930.5183  -656.1473   831.4711 H6            1 RES     
   24958 H6        -933.5912  -656.4341   831.7885 H6            1 RES     
   24959 H6        -932.5980  -656.3025   830.2878 H6            1 RES     
   24960 H6        -932.6421  -658.5721   832.3587 H6            1 RES     
   24961 H6        -931.3708  -658.4358   831.1326 H6            1 RES     
   24962 H6        -932.9670  -659.9921   830.5316 H6            1 RES     
   24963 H6        -935.2950  -658.1649   830.6206 H6            1 RES     
   24964 H6        -935.2699  -659.6601   829.6040 H6            1 RES     
   24965 H6        -934.5837  -661.0601   831.3790 H6            1 RES     
   24966 H6        -934.5218  -659.6392   832.5525 H6            1 RES     
   24967 H6        -936.9411  -661.1778   831.4973 H6            1 RES     
   24968 H6        -936.9916  -659.7747   832.6510 H6            1 RES     
   24969 H6        -935.2787  -662.3586   833.0872 H6            1 RES     
   24970 H6        -935.3948  -660.9489   834.1882 H6            1 RES     
   24971 H6        -937.7922  -661.4894   834.6350 H6            1 RES     
   24972 H6        -936.5940  -662.7428   835.1209 H6            1 RES     
   24973 H6        -937.0625  -664.0988   833.1159 H6            1 RES     
   24974 H6        -938.3230  -662.9054   832.5879 H6            1 RES     
   24975 H6        -938.5274  -663.8345   834.1259 H6            1 RES     
   24976 H6        -931.5806  -658.6671   828.9277 H6            1 RES     
   24977 H6        -933.2106  -658.2366   828.3375 H6            1 RES     
   24978 H6        -932.8185  -659.1882   826.4845 H6            1 RES     
   24979 H6        -931.5223  -660.2932   826.2209 H6            1 RES     
   24980 H6        -934.5239  -661.0807   826.4467 H6            1 RES     
   24981 H6        -932.8917  -662.9516   826.3180 H6            1 RES     
   24982 H6        -934.1727  -662.9781   825.0718 H6            1 RES     
   24983 H6        -932.6615  -662.2404   823.2903 H6            1 RES     
   24984 H6        -931.3657  -661.9084   824.4548 H6            1 RES     
   24985 H6        -930.7883  -663.9620   823.4097 H6            1 RES     
   24986 H6        -931.2939  -664.3703   825.0604 H6            1 RES     
   24987 H6        -933.5341  -665.1170   824.2179 H6            1 RES     
   24988 H6        -932.1521  -666.0241   823.5269 H6            1 RES     
   24989 H6        -933.7481  -663.8101   822.0722 H6            1 RES     
   24990 H6        -933.8445  -665.5810   821.8139 H6            1 RES     
   24991 H6        -931.4367  -665.6210   821.0859 H6            1 RES     
   24992 H6        -932.4639  -664.5515   820.0576 H6            1 RES     
   24993 H6        -931.3647  -663.8198   821.2643 H6            1 RES     
   24994 H6        -934.7816  -659.3240   824.9518 H6            1 RES     
   24995 H6        -934.7877  -660.7921   823.9343 H6            1 RES     
   24996 H6        -932.2767  -660.1405   823.3732 H6            1 RES     
   24997 H6        -932.5572  -658.6454   824.2766 H6            1 RES     
   24998 H6        -932.7178  -658.4131   821.8458 H6            1 RES     
   24999 H6        -934.0313  -659.6346   821.7418 H6            1 RES     
   25000 H6        -934.2447  -656.9049   823.2020 H6            1 RES     
   25001 H6        -935.5421  -658.1458   823.0445 H6            1 RES     
   25002 H6        -935.5032  -657.8925   820.5449 H6            1 RES     
   25003 H6        -935.9402  -656.3917   821.4366 H6            1 RES     
   25004 H6        -933.1554  -656.9891   820.2450 H6            1 RES     
   25005 H6        -933.6169  -655.4964   821.1384 H6            1 RES     
   25006 H6        -933.5512  -655.2173   818.6674 H6            1 RES     
   25007 H6        -934.7926  -656.5012   818.4526 H6            1 RES     
   25008 H6        -936.4650  -655.0574   819.6664 H6            1 RES     
   25009 H6        -935.7441  -654.2040   818.2626 H6            1 RES     
   25010 H6        -935.1786  -653.8062   819.9274 H6            1 RES     
   25011 C0        -934.2523  -658.3395   841.0806 C0            1 RES     
   25012 C0        -933.4814  -658.6913   842.4166 C0            1 RES     
   25013 C0        -932.1956  -659.0291   842.1592 C0            1 RES     
   25014 S1        -931.2914  -659.3804   843.5287 S1            1 RES     
   25015 C0        -932.5899  -659.0873   844.5849 C0            1 RES     
   25016 C0        -933.7247  -658.8024   843.8120 C0            1 RES     
   25017 C0        -931.9859  -659.0676   840.7596 C0            1 RES     
   25018 C0        -933.0960  -658.7200   840.1493 C0            1 RES     
   25019 C0        -932.9958  -658.9444   838.7345 C0            1 RES     
   25020 C0        -931.7683  -659.4798   838.3890 C0            1 RES     
   25021 S1        -930.6285  -659.6688   839.7710 S1            1 RES     
   25022 H2        -934.6625  -658.6429   844.2778 H2            1 RES     
   25023 H2        -933.8022  -658.8492   838.0704 H2            1 RES     
   25024 N3        -933.5499  -658.3705   848.1914 N3            1 RES     
   25025 C0        -933.6119  -658.5099   846.8373 C0            1 RES     
   25026 C0        -932.5245  -659.0333   846.0884 C0            1 RES     
   25027 C0        -931.3834  -659.4129   846.8277 C0            1 RES     
   25028 N3        -930.2524  -659.9373   846.2882 N3            1 RES     
   25029 S1        -929.2975  -660.1732   847.6143 S1            1 RES     
   25030 N3        -930.2216  -659.6402   848.8711 N3            1 RES     
   25031 C0        -931.3633  -659.2512   848.2442 C0            1 RES     
   25032 C0        -932.4559  -658.7237   848.9098 C0            1 RES     
   25033 H4        -934.5078  -658.1755   846.3567 H4            1 RES     
   25034 C5        -928.5492  -653.8593   849.2827 C5            1 RES     
   25035 C5        -928.6989  -655.1695   848.5096 C5            1 RES     
   25036 C5        -930.1215  -655.3931   847.9692 C5            1 RES     
   25037 C5        -930.5349  -654.3713   846.8941 C5            1 RES     
   25038 C5        -931.9456  -654.6725   846.3653 C5            1 RES     
   25039 C5        -932.3131  -653.7480   845.1838 C5            1 RES     
   25040 C5        -933.7029  -654.0192   844.5488 C5            1 RES     
   25041 C5        -933.8641  -655.5022   844.2102 C5            1 RES     
   25042 C5        -934.9834  -655.9015   843.2159 C5            1 RES     
   25043 C5        -936.4914  -655.7963   843.6668 C5            1 RES     
   25044 C5        -936.7305  -656.9504   844.6796 C5            1 RES     
   25045 C5        -938.0388  -657.3387   845.3784 C5            1 RES     
   25046 C5        -937.6685  -658.5903   846.2407 C5            1 RES     
   25047 C5        -938.7702  -659.2379   847.0778 C5            1 RES     
   25048 C5        -939.8109  -659.9663   846.2364 C5            1 RES     
   25049 C5        -934.5828  -655.6494   841.7551 C5            1 RES     
   25050 C0        -934.9368  -656.8636   840.8020 C0            1 RES     
   25051 C5        -935.0893  -656.3191   839.3164 C5            1 RES     
   25052 C5        -936.4222  -656.6322   838.5508 C5            1 RES     
   25053 C5        -936.4288  -657.9983   837.8058 C5            1 RES     
   25054 C5        -935.6324  -658.0292   836.4797 C5            1 RES     
   25055 C5        -935.4254  -659.4510   835.9218 C5            1 RES     
   25056 C5        -936.6885  -660.1342   835.3747 C5            1 RES     
   25057 C5        -937.3216  -659.4355   834.1559 C5            1 RES     
   25058 C5        -936.3682  -659.3227   832.9621 C5            1 RES     
   25059 C5        -936.9149  -655.4421   837.6391 C5            1 RES     
   25060 C5        -935.8544  -654.7528   836.7369 C5            1 RES     
   25061 C5        -936.4369  -653.7614   835.7046 C5            1 RES     
   25062 C5        -937.1849  -652.5540   836.3042 C5            1 RES     
   25063 C5        -937.6942  -651.5635   835.2283 C5            1 RES     
   25064 C5        -936.5612  -650.8335   834.4738 C5            1 RES     
   25065 C5        -937.0577  -649.8546   833.3926 C5            1 RES     
   25066 C5        -937.8574  -648.6747   833.9449 C5            1 RES     
   25067 H6        -928.7208  -652.9827   848.6263 H6            1 RES     
   25068 H6        -927.5182  -653.7857   849.6884 H6            1 RES     
   25069 H6        -929.2661  -653.8324   850.1308 H6            1 RES     
   25070 H6        -927.9648  -655.1974   847.6748 H6            1 RES     
   25071 H6        -928.4590  -656.0030   849.2055 H6            1 RES     
   25072 H6        -930.1478  -656.4081   847.5131 H6            1 RES     
   25073 H6        -930.8443  -655.3759   848.8132 H6            1 RES     
   25074 H6        -929.8057  -654.4362   846.0555 H6            1 RES     
   25075 H6        -930.5222  -653.3396   847.3012 H6            1 RES     
   25076 H6        -931.9417  -655.7277   846.0181 H6            1 RES     
   25077 H6        -932.6895  -654.5644   847.1833 H6            1 RES     
   25078 H6        -932.2650  -652.6841   845.5007 H6            1 RES     
   25079 H6        -931.5447  -653.9019   844.3930 H6            1 RES     
   25080 H6        -934.5266  -653.7133   845.2290 H6            1 RES     
   25081 H6        -933.7610  -653.4050   843.6244 H6            1 RES     
   25082 H6        -933.9827  -656.0577   845.1592 H6            1 RES     
   25083 H6        -932.9070  -655.8588   843.7659 H6            1 RES     
   25084 H6        -934.8697  -656.9235   843.1783 H6            1 RES     
   25085 H6        -936.7142  -654.7912   844.0824 H6            1 RES     
   25086 H6        -937.1596  -655.9827   842.7973 H6            1 RES     
   25087 H6        -936.5340  -657.8622   844.0847 H6            1 RES     
   25088 H6        -935.9973  -656.7942   845.4887 H6            1 RES     
   25089 H6        -938.8181  -657.5899   844.6268 H6            1 RES     
   25090 H6        -938.3967  -656.5146   846.0296 H6            1 RES     
   25091 H6        -937.2303  -659.3869   845.5939 H6            1 RES     
   25092 H6        -936.8786  -658.2812   846.9601 H6            1 RES     
   25093 H6        -939.2432  -658.4840   847.7391 H6            1 RES     
   25094 H6        -938.2822  -660.0068   847.7205 H6            1 RES     
   25095 H6        -939.3206  -660.7441   845.6095 H6            1 RES     
   25096 H6        -940.3607  -659.2577   845.5874 H6            1 RES     
   25097 H6        -940.5295  -660.4750   846.9141 H6            1 RES     
   25098 H6        -933.4847  -655.5193   841.6421 H6            1 RES     
   25099 H6        -935.0539  -654.6823   841.4759 H6            1 RES     
   25100 H6        -935.1524  -655.2201   839.4279 H6            1 RES     
   25101 H6        -934.1757  -656.4402   838.7013 H6            1 RES     
   25102 H6        -937.2091  -656.7207   839.3337 H6            1 RES     
   25103 H6        -936.0518  -658.7634   838.5162 H6            1 RES     
   25104 H6        -937.4786  -658.2685   837.5601 H6            1 RES     
   25105 H6        -936.1247  -657.4050   835.7099 H6            1 RES     
   25106 H6        -934.6304  -657.5913   836.6469 H6            1 RES     
   25107 H6        -934.6661  -659.4063   835.1147 H6            1 RES     
   25108 H6        -934.9979  -660.1000   836.7134 H6            1 RES     
   25109 H6        -937.4451  -660.2210   836.1824 H6            1 RES     
   25110 H6        -936.4065  -661.1656   835.0693 H6            1 RES     
   25111 H6        -937.6894  -658.4252   834.4295 H6            1 RES     
   25112 H6        -938.1991  -660.0390   833.8395 H6            1 RES     
   25113 H6        -935.9900  -660.3258   832.6704 H6            1 RES     
   25114 H6        -936.9053  -658.8798   832.0979 H6            1 RES     
   25115 H6        -935.5093  -658.6599   833.1945 H6            1 RES     
   25116 H6        -937.3034  -654.6419   838.3055 H6            1 RES     
   25117 H6        -937.7733  -655.8018   837.0309 H6            1 RES     
   25118 H6        -935.2922  -655.4857   836.1431 H6            1 RES     
   25119 H6        -935.1101  -654.2226   837.3685 H6            1 RES     
   25120 H6        -935.5745  -653.3951   835.1128 H6            1 RES     
   25121 H6        -937.1194  -654.3076   835.0165 H6            1 RES     
   25122 H6        -936.5265  -652.0089   837.0149 H6            1 RES     
   25123 H6        -938.0677  -652.9300   836.8601 H6            1 RES     
   25124 H6        -938.3453  -652.1010   834.5044 H6            1 RES     
   25125 H6        -938.3149  -650.8023   835.7497 H6            1 RES     
   25126 H6        -935.9293  -651.5777   833.9498 H6            1 RES     
   25127 H6        -935.9240  -650.2829   835.1999 H6            1 RES     
   25128 H6        -936.1659  -649.4408   832.8717 H6            1 RES     
   25129 H6        -937.6707  -650.3990   832.6424 H6            1 RES     
   25130 H6        -938.7979  -649.0151   834.4225 H6            1 RES     
   25131 H6        -938.1267  -647.9924   833.1101 H6            1 RES     
   25132 H6        -937.2497  -648.1068   834.6809 H6            1 RES     
   25133 C0        -934.1997  -657.6254   853.8893 C0            1 RES     
   25134 C0        -933.3331  -658.4139   854.9524 C0            1 RES     
   25135 C0        -932.2017  -658.9006   854.3897 C0            1 RES     
   25136 S1        -931.2013  -659.7200   855.4596 S1            1 RES     
   25137 C0        -932.2365  -659.4634   856.7824 C0            1 RES     
   25138 C0        -933.3857  -658.8089   856.3161 C0            1 RES     
   25139 C0        -932.2140  -658.6417   852.9980 C0            1 RES     
   25140 C0        -933.3019  -657.9702   852.6958 C0            1 RES     
   25141 C0        -933.4621  -657.8660   851.2726 C0            1 RES     
   25142 C0        -932.4422  -658.5105   850.5963 C0            1 RES     
   25143 S1        -931.1778  -659.2189   851.6660 S1            1 RES     
   25144 H2        -934.1884  -658.6030   856.9758 H2            1 RES     
   25145 H2        -934.3186  -657.4761   850.8091 H2            1 RES     
   25146 N3        -932.4777  -659.4672   860.5750 N3            1 RES     
   25147 C0        -932.7674  -659.2679   859.2586 C0            1 RES     
   25148 C0        -931.9398  -659.7804   858.2243 C0            1 RES     
   25149 C0        -930.8098  -660.5185   858.6379 C0            1 RES     
   25150 N3        -929.9094  -661.0896   857.7962 N3            1 RES     
   25151 S1        -928.8418  -661.7971   858.8381 S1            1 RES     
   25152 N3        -929.4346  -661.4246   860.3306 N3            1 RES     
   25153 C0        -930.5466  -660.7041   860.0269 C0            1 RES     
   25154 C0        -931.3907  -660.1668   860.9830 C0            1 RES     
   25155 H4        -933.6321  -658.6773   859.0371 H4            1 RES     
   25156 C5        -926.5235  -656.2918   861.5814 C5            1 RES     
   25157 C5        -927.0622  -657.3338   860.6012 C5            1 RES     
   25158 C5        -928.5636  -657.1699   860.3099 C5            1 RES     
   25159 C5        -928.9032  -655.8658   859.5650 C5            1 RES     
   25160 C5        -930.4079  -655.7811   859.2667 C5            1 RES     
   25161 C5        -930.7398  -654.5527   858.3911 C5            1 RES     
   25162 C5        -932.2337  -654.4176   857.9929 C5            1 RES     
   25163 C5        -932.7562  -655.7259   857.3969 C5            1 RES     
   25164 C5        -934.0693  -655.6752   856.5758 C5            1 RES     
   25165 C5        -935.4364  -655.4178   857.3195 C5            1 RES     
   25166 C5        -935.7643  -656.7192   858.1028 C5            1 RES     
   25167 C5        -937.0075  -657.0271   858.9457 C5            1 RES     
   25168 C5        -936.7901  -658.4926   859.4479 C5            1 RES     
   25169 C5        -937.8687  -659.1173   860.3311 C5            1 RES     
   25170 C5        -939.1536  -659.4312   859.5747 C5            1 RES     
   25171 C5        -933.8443  -655.1575   855.1478 C5            1 RES     
   25172 C0        -934.5864  -656.0292   854.0535 C0            1 RES     
   25173 C5        -934.8368  -655.1294   852.7673 C5            1 RES     
   25174 C5        -936.3039  -655.0132   852.2243 C5            1 RES     
   25175 C5        -936.7122  -656.1404   851.2322 C5            1 RES     
   25176 C5        -936.1456  -655.9943   849.7999 C5            1 RES     
   25177 C5        -936.3319  -657.2565   848.9352 C5            1 RES     
   25178 C5        -937.7785  -657.5582   848.5133 C5            1 RES     
   25179 C5        -938.4206  -656.4901   847.6068 C5            1 RES     
   25180 C5        -937.6521  -656.2657   846.3007 C5            1 RES     
   25181 C5        -936.6600  -653.5733   851.6858 C5            1 RES     
   25182 C5        -935.6218  -652.8860   850.7563 C5            1 RES     
   25183 C5        -936.1249  -651.5915   850.0788 C5            1 RES     
   25184 C5        -936.5007  -650.4494   851.0437 C5            1 RES     
   25185 C5        -936.9398  -649.1583   850.3101 C5            1 RES     
   25186 C5        -935.8011  -648.4800   849.5169 C5            1 RES     
   25187 C5        -936.2310  -647.2009   848.7734 C5            1 RES     
   25188 C5        -936.6696  -646.0647   849.6973 C5            1 RES     
   25189 H6        -926.5989  -655.2682   861.1626 H6            1 RES     
   25190 H6        -925.4523  -656.4984   861.7881 H6            1 RES     
   25191 H6        -927.0847  -656.3420   862.5387 H6            1 RES     
   25192 H6        -926.4826  -657.2907   859.6532 H6            1 RES     
   25193 H6        -926.9059  -658.3375   861.0536 H6            1 RES     
   25194 H6        -928.8732  -658.0268   859.6704 H6            1 RES     
   25195 H6        -929.1333  -657.2274   861.2624 H6            1 RES     
   25196 H6        -928.3368  -655.8563   858.6067 H6            1 RES     
   25197 H6        -928.6104  -654.9790   860.1634 H6            1 RES     
   25198 H6        -930.6810  -656.7074   858.7178 H6            1 RES     
   25199 H6        -930.9824  -655.7417   860.2168 H6            1 RES     
   25200 H6        -930.4191  -653.6199   858.9026 H6            1 RES     
   25201 H6        -930.1475  -654.6464   857.4530 H6            1 RES     
   25202 H6        -932.8632  -654.1426   858.8663 H6            1 RES     
   25203 H6        -932.2950  -653.6010   857.2416 H6            1 RES     
   25204 H6        -932.8492  -656.4613   858.2177 H6            1 RES     
   25205 H6        -931.9738  -656.1286   856.7141 H6            1 RES     
   25206 H6        -934.1835  -656.6627   856.3099 H6            1 RES     
   25207 H6        -935.3754  -654.5171   857.9658 H6            1 RES     
   25208 H6        -936.2500  -655.2722   856.5749 H6            1 RES     
   25209 H6        -935.8573  -657.4834   857.3084 H6            1 RES     
   25210 H6        -934.9034  -656.8905   858.7707 H6            1 RES     
   25211 H6        -937.9248  -656.9521   858.3226 H6            1 RES     
   25212 H6        -937.0808  -656.3317   859.8074 H6            1 RES     
   25213 H6        -936.6327  -659.1768   858.5806 H6            1 RES     
   25214 H6        -935.8549  -658.5065   860.0498 H6            1 RES     
   25215 H6        -938.0666  -658.4712   861.2102 H6            1 RES     
   25216 H6        -937.4667  -660.0901   860.6981 H6            1 RES     
   25217 H6        -938.9389  -660.1112   858.7205 H6            1 RES     
   25218 H6        -939.6290  -658.5037   859.2013 H6            1 RES     
   25219 H6        -939.8561  -659.9523   860.2597 H6            1 RES     
   25220 H6        -932.7728  -655.1986   854.8550 H6            1 RES     
   25221 H6        -934.1338  -654.0846   855.1669 H6            1 RES     
   25222 H6        -934.6463  -654.0947   853.1102 H6            1 RES     
   25223 H6        -934.0712  -655.2589   851.9767 H6            1 RES     
   25224 H6        -936.9671  -655.1459   853.1089 H6            1 RES     
   25225 H6        -936.4068  -657.1062   851.6862 H6            1 RES     
   25226 H6        -937.8200  -656.1563   851.1429 H6            1 RES     
   25227 H6        -936.6013  -655.1288   849.2825 H6            1 RES     
   25228 H6        -935.0598  -655.7911   849.8573 H6            1 RES     
   25229 H6        -935.7084  -657.1550   848.0238 H6            1 RES     
   25230 H6        -935.9409  -658.1395   849.4811 H6            1 RES     
   25231 H6        -938.4084  -657.7005   849.4163 H6            1 RES     
   25232 H6        -937.7717  -658.5204   847.9560 H6            1 RES     
   25233 H6        -938.5195  -655.5254   848.1457 H6            1 RES     
   25234 H6        -939.4436  -656.8379   847.3487 H6            1 RES     
   25235 H6        -937.5444  -657.2211   845.7439 H6            1 RES     
   25236 H6        -938.2038  -655.5432   845.6643 H6            1 RES     
   25237 H6        -936.6467  -655.8380   846.4940 H6            1 RES     
   25238 H6        -936.7657  -652.8990   852.5629 H6            1 RES     
   25239 H6        -937.6556  -653.6222   851.1934 H6            1 RES     
   25240 H6        -935.3233  -653.5437   849.9292 H6            1 RES     
   25241 H6        -934.6965  -652.6599   851.3279 H6            1 RES     
   25242 H6        -935.3013  -651.2521   849.4198 H6            1 RES     
   25243 H6        -937.0024  -651.8304   849.4380 H6            1 RES     
   25244 H6        -935.6434  -650.2127   851.7107 H6            1 RES     
   25245 H6        -937.3514  -650.7861   851.6703 H6            1 RES     
   25246 H6        -937.7903  -649.3858   849.6306 H6            1 RES     
   25247 H6        -937.2994  -648.4462   851.0848 H6            1 RES     
   25248 H6        -935.4273  -649.1771   848.7411 H6            1 RES     
   25249 H6        -934.9608  -648.2379   850.2038 H6            1 RES     
   25250 H6        -935.3584  -646.8379   848.1864 H6            1 RES     
   25251 H6        -937.0502  -647.4355   848.0600 H6            1 RES     
   25252 H6        -937.5800  -646.3386   850.2670 H6            1 RES     
   25253 H6        -936.9071  -645.1673   849.0864 H6            1 RES     
   25254 H6        -935.8527  -645.8033   850.4029 H6            1 RES     
   25255 C0        -932.1044  -659.9950   866.3218 C0            1 RES     
   25256 C0        -931.2790  -661.1527   867.0158 C0            1 RES     
   25257 C0        -930.3736  -661.6822   866.1594 C0            1 RES     
   25258 S1        -929.4246  -662.8944   866.8278 S1            1 RES     
   25259 C0        -930.1741  -662.7822   868.3487 C0            1 RES     
   25260 C0        -931.2128  -661.8448   868.2548 C0            1 RES     
   25261 C0        -930.5357  -661.1020   864.8783 C0            1 RES     
   25262 C0        -931.4874  -660.1981   864.9336 C0            1 RES     
   25263 C0        -931.8301  -659.7325   863.6191 C0            1 RES     
   25264 C0        -931.0828  -660.3662   862.6430 C0            1 RES     
   25265 S1        -929.8552  -661.5186   863.2831 S1            1 RES     
   25266 H2        -931.8466  -661.6643   869.0840 H2            1 RES     
   25267 H2        -932.6422  -659.0999   863.4178 H2            1 RES     
   25268 N3        -929.8477  -663.6445   872.0354 N3            1 RES     
   25269 C0        -930.2793  -663.0906   870.8676 C0            1 RES     
   25270 C0        -929.7423  -663.4796   869.6116 C0            1 RES     
   25271 C0        -928.7478  -664.4809   869.6416 C0            1 RES     
   25272 N3        -928.1246  -664.9842   868.5445 N3            1 RES     
   25273 S1        -927.0910  -666.0947   869.1959 S1            1 RES     
   25274 N3        -927.3635  -665.9895   870.8184 N3            1 RES     
   25275 C0        -928.3281  -665.0343   870.8868 C0            1 RES     
   25276 C0        -928.8872  -664.6002   872.0761 C0            1 RES     
   25277 H4        -931.0208  -662.3223   870.9411 H4            1 RES     
   25278 C5        -923.2706  -661.8923   872.5054 C5            1 RES     
   25279 C5        -924.1583  -662.5606   871.4556 C5            1 RES     
   25280 C5        -925.6161  -662.0720   871.4973 C5            1 RES     
   25281 C5        -925.7754  -660.5895   871.1128 C5            1 RES     
   25282 C5        -927.2544  -660.1742   871.1324 C5            1 RES     
   25283 C5        -927.4417  -658.7345   870.6054 C5            1 RES     
   25284 C5        -928.9143  -658.2492   870.5373 C5            1 RES     
   25285 C5        -929.7865  -659.2661   869.7991 C5            1 RES     
   25286 C5        -931.1649  -658.7927   869.2730 C5            1 RES     
   25287 C5        -932.3202  -658.4840   870.3018 C5            1 RES     
   25288 C5        -932.7993  -659.8561   870.8518 C5            1 RES     
   25289 C5        -933.9411  -660.1328   871.8370 C5            1 RES     
   25290 C5        -933.9701  -661.6904   871.9791 C5            1 RES     
   25291 C5        -935.0148  -662.3083   872.9069 C5            1 RES     
   25292 C5        -936.4344  -662.2035   872.3634 C5            1 RES     
   25293 C5        -931.0479  -657.9982   867.9642 C5            1 RES     
   25294 C0        -932.1125  -658.4412   866.8786 C0            1 RES     
   25295 C5        -932.3519  -657.2321   865.8749 C5            1 RES     
   25296 C5        -933.8241  -656.7352   865.6588 C5            1 RES     
   25297 C5        -934.6058  -657.5050   864.5552 C5            1 RES     
   25298 C5        -934.2390  -657.1244   863.1011 C5            1 RES     
   25299 C5        -934.8164  -658.0924   862.0498 C5            1 RES     
   25300 C5        -936.3400  -658.0270   861.8609 C5            1 RES     
   25301 C5        -936.8657  -656.6788   861.3312 C5            1 RES     
   25302 C5        -936.2686  -656.2887   859.9754 C5            1 RES     
   25303 C5        -933.9398  -655.1691   865.5031 C5            1 RES     
   25304 C5        -932.9277  -654.4735   864.5515 C5            1 RES     
   25305 C5        -933.2369  -652.9876   864.2610 C5            1 RES     
   25306 C5        -933.2132  -652.0597   865.4920 C5            1 RES     
   25307 C5        -933.4696  -650.5750   865.1347 C5            1 RES     
   25308 C5        -932.3422  -649.9378   864.2927 C5            1 RES     
   25309 C5        -932.5939  -648.4638   863.9217 C5            1 RES     
   25310 C5        -932.6382  -647.5209   865.1241 C5            1 RES     
   25311 H6        -923.1865  -660.8016   872.3260 H6            1 RES     
   25312 H6        -922.2498  -662.3263   872.4562 H6            1 RES     
   25313 H6        -923.6819  -662.0694   873.5220 H6            1 RES     
   25314 H6        -923.7294  -662.3957   870.4430 H6            1 RES     
   25315 H6        -924.1550  -663.6545   871.6557 H6            1 RES     
   25316 H6        -926.1927  -662.6846   870.7684 H6            1 RES     
   25317 H6        -926.0378  -662.2534   872.5095 H6            1 RES     
   25318 H6        -925.3680  -660.4520   870.0860 H6            1 RES     
   25319 H6        -925.2148  -659.9356   871.8116 H6            1 RES     
   25320 H6        -927.7972  -660.8811   870.4693 H6            1 RES     
   25321 H6        -927.6605  -660.2617   872.1628 H6            1 RES     
   25322 H6        -926.8572  -658.0208   871.2248 H6            1 RES     
   25323 H6        -927.0284  -658.7049   869.5721 H6            1 RES     
   25324 H6        -929.3344  -658.0837   871.5525 H6            1 RES     
   25325 H6        -928.9099  -657.2797   869.9939 H6            1 RES     
   25326 H6        -929.9122  -660.1475   870.4553 H6            1 RES     
   25327 H6        -929.2178  -659.6257   868.9114 H6            1 RES     
   25328 H6        -931.5255  -659.6531   868.8387 H6            1 RES     
   25329 H6        -931.9734  -657.7876   871.0939 H6            1 RES     
   25330 H6        -933.1848  -658.0256   869.7727 H6            1 RES     
   25331 H6        -933.1698  -660.3813   869.9514 H6            1 RES     
   25332 H6        -931.9059  -660.3292   871.2930 H6            1 RES     
   25333 H6        -934.9029  -659.7525   871.4300 H6            1 RES     
   25334 H6        -933.7360  -659.6603   872.8199 H6            1 RES     
   25335 H6        -934.0925  -662.1657   870.9770 H6            1 RES     
   25336 H6        -932.9812  -662.0105   872.3747 H6            1 RES     
   25337 H6        -934.9380  -661.8651   873.9204 H6            1 RES     
   25338 H6        -934.7803  -663.3952   872.9841 H6            1 RES     
   25339 H6        -936.4985  -662.6879   871.3636 H6            1 RES     
   25340 H6        -936.7504  -661.1453   872.2849 H6            1 RES     
   25341 H6        -937.1230  -662.7411   873.0498 H6            1 RES     
   25342 H6        -930.0652  -658.1555   867.4692 H6            1 RES     
   25343 H6        -931.0954  -656.9270   868.2565 H6            1 RES     
   25344 H6        -931.8963  -656.3583   866.3781 H6            1 RES     
   25345 H6        -931.7571  -657.3020   864.9427 H6            1 RES     
   25346 H6        -934.3622  -656.9560   866.6083 H6            1 RES     
   25347 H6        -934.4501  -658.5891   864.7359 H6            1 RES     
   25348 H6        -935.6921  -657.3050   864.6788 H6            1 RES     
   25349 H6        -934.5705  -656.0947   862.8679 H6            1 RES     
   25350 H6        -933.1385  -657.1340   862.9892 H6            1 RES     
   25351 H6        -934.3272  -657.8880   861.0757 H6            1 RES     
   25352 H6        -934.5468  -659.1341   862.3191 H6            1 RES     
   25353 H6        -936.8453  -658.2672   862.8198 H6            1 RES     
   25354 H6        -936.6214  -658.8153   861.1287 H6            1 RES     
   25355 H6        -936.6754  -655.8677   862.0639 H6            1 RES     
   25356 H6        -937.9661  -656.7706   861.2088 H6            1 RES     
   25357 H6        -936.4509  -657.0881   859.2257 H6            1 RES     
   25358 H6        -936.7410  -655.3506   859.6173 H6            1 RES     
   25359 H6        -935.1777  -656.1020   860.0551 H6            1 RES     
   25360 H6        -933.7682  -654.7147   866.5028 H6            1 RES     
   25361 H6        -934.9844  -654.9245   865.2115 H6            1 RES     
   25362 H6        -932.9021  -654.9576   863.5662 H6            1 RES     
   25363 H6        -931.9014  -654.5552   864.9687 H6            1 RES     
   25364 H6        -932.4664  -652.6509   863.5393 H6            1 RES     
   25365 H6        -934.2300  -652.9100   863.7655 H6            1 RES     
   25366 H6        -932.2363  -652.1422   866.0160 H6            1 RES     
   25367 H6        -934.0141  -652.3813   866.1883 H6            1 RES     
   25368 H6        -934.4399  -650.4820   864.5992 H6            1 RES     
   25369 H6        -933.5504  -650.0156   866.0924 H6            1 RES     
   25370 H6        -932.2449  -650.4851   863.3342 H6            1 RES     
   25371 H6        -931.3777  -650.0169   864.8402 H6            1 RES     
   25372 H6        -931.7603  -648.1303   863.2646 H6            1 RES     
   25373 H6        -933.5404  -648.3750   863.3462 H6            1 RES     
   25374 H6        -933.4917  -647.7586   865.7900 H6            1 RES     
   25375 H6        -932.7660  -646.4768   864.7658 H6            1 RES     
   25376 H6        -931.6892  -647.5818   865.6980 H6            1 RES     
   25377 C0        -928.7511  -665.5794   877.3737 C0            1 RES     
   25378 C0        -928.0990  -666.9948   877.6460 C0            1 RES     
   25379 C0        -927.4643  -667.4559   876.5423 C0            1 RES     
   25380 S1        -926.7082  -668.9390   876.7552 S1            1 RES     
   25381 C0        -927.1834  -669.0619   878.3820 C0            1 RES     
   25382 C0        -928.0000  -667.9621   878.6819 C0            1 RES     
   25383 C0        -927.6861  -666.5688   875.4615 C0            1 RES     
   25384 C0        -928.4038  -665.5517   875.8812 C0            1 RES     
   25385 C0        -928.8293  -664.7345   874.7797 C0            1 RES     
   25386 C0        -928.3873  -665.2390   873.5701 C0            1 RES     
   25387 S1        -927.3535  -666.7071   873.7146 S1            1 RES     
   25388 H2        -928.4509  -667.8756   879.6364 H2            1 RES     
   25389 H2        -929.5081  -663.9401   874.8710 H2            1 RES     
   25390 N3        -926.5079  -670.8188   881.6834 N3            1 RES     
   25391 C0        -926.9788  -669.9365   880.7578 C0            1 RES     
   25392 C0        -926.7289  -670.1038   879.3697 C0            1 RES     
   25393 C0        -925.9781  -671.2419   879.0039 C0            1 RES     
   25394 N3        -925.6459  -671.5713   877.7285 N3            1 RES     
   25395 S1        -924.7888  -672.9680   877.9296 S1            1 RES     
   25396 N3        -924.7898  -673.2052   879.5610 N3            1 RES     
   25397 C0        -925.5071  -672.1399   880.0062 C0            1 RES     
   25398 C0        -925.7786  -671.9098   881.3437 C0            1 RES     
   25399 H4        -927.5198  -669.0901   881.1270 H4            1 RES     
   25400 C5        -919.7128  -670.4079   881.2292 C5            1 RES     
   25401 C5        -920.8678  -670.6417   880.2556 C5            1 RES     
   25402 C5        -922.1650  -669.9294   880.6749 C5            1 RES     
   25403 C5        -922.0589  -668.3937   880.6380 C5            1 RES     
   25404 C5        -923.3954  -667.7426   881.0252 C5            1 RES     
   25405 C5        -923.3465  -666.2090   880.8482 C5            1 RES     
   25406 C5        -924.6748  -665.4713   881.1641 C5            1 RES     
   25407 C5        -925.8434  -666.1148   880.4158 C5            1 RES     
   25408 C5        -927.1511  -665.2962   880.2715 C5            1 RES     
   25409 C5        -928.0488  -665.0433   881.5437 C5            1 RES     
   25410 C5        -928.7234  -666.4010   881.8845 C5            1 RES     
   25411 C5        -929.7396  -666.6995   882.9931 C5            1 RES     
   25412 C5        -930.0796  -668.2164   882.8181 C5            1 RES     
   25413 C5        -931.0833  -668.8442   883.7835 C5            1 RES     
   25414 C5        -932.5120  -668.3664   883.5555 C5            1 RES     
   25415 C5        -927.0616  -664.2466   879.1542 C5            1 RES     
   25416 C0        -928.3447  -664.2256   878.2261 C0            1 RES     
   25417 C5        -928.4657  -662.7899   877.5545 C5            1 RES     
   25418 C5        -929.8131  -662.0061   877.7306 C5            1 RES     
   25419 C5        -930.8954  -662.3426   876.6644 C5            1 RES     
   25420 C5        -930.6747  -661.6977   875.2755 C5            1 RES     
   25421 C5        -931.5944  -662.2717   874.1799 C5            1 RES     
   25422 C5        -933.0797  -661.8976   874.3042 C5            1 RES     
   25423 C5        -933.3774  -660.3915   874.1709 C5            1 RES     
   25424 C5        -932.9177  -659.8013   872.8341 C5            1 RES     
   25425 C5        -929.6131  -660.4525   877.9221 C5            1 RES     
   25426 C5        -928.6277  -659.7390   876.9558 C5            1 RES     
   25427 C5        -928.6517  -658.1962   877.0387 C5            1 RES     
   25428 C5        -928.2487  -657.6062   878.4049 C5            1 RES     
   25429 C5        -928.2318  -656.0578   878.4132 C5            1 RES     
   25430 C5        -927.1313  -655.4464   877.5182 C5            1 RES     
   25431 C5        -927.1141  -653.9058   877.5103 C5            1 RES     
   25432 C5        -926.7778  -653.2828   878.8651 C5            1 RES     
   25433 H6        -919.4250  -669.3379   881.2629 H6            1 RES     
   25434 H6        -918.8270  -670.9897   880.8978 H6            1 RES     
   25435 H6        -919.9976  -670.7466   882.2481 H6            1 RES     
   25436 H6        -920.5680  -670.3186   879.2347 H6            1 RES     
   25437 H6        -921.0689  -671.7349   880.2245 H6            1 RES     
   25438 H6        -922.9604  -670.2406   879.9610 H6            1 RES     
   25439 H6        -922.4615  -670.2694   881.6906 H6            1 RES     
   25440 H6        -921.7877  -668.0898   879.6020 H6            1 RES     
   25441 H6        -921.2745  -668.0332   881.3344 H6            1 RES     
   25442 H6        -924.1685  -668.1654   880.3488 H6            1 RES     
   25443 H6        -923.6540  -667.9999   882.0745 H6            1 RES     
   25444 H6        -922.5380  -665.7766   881.4760 H6            1 RES     
   25445 H6        -923.0936  -666.0076   879.7828 H6            1 RES     
   25446 H6        -924.8952  -665.4808   882.2531 H6            1 RES     
   25447 H6        -924.5437  -664.4166   880.8389 H6            1 RES     
   25448 H6        -926.0563  -667.0908   880.8905 H6            1 RES     
   25449 H6        -925.5023  -666.3471   879.3812 H6            1 RES     
   25450 H6        -927.7473  -665.9519   879.7486 H6            1 RES     
   25451 H6        -927.4481  -664.6268   882.3794 H6            1 RES     
   25452 H6        -928.8639  -664.3283   881.2949 H6            1 RES     
   25453 H6        -929.3264  -666.6241   880.9843 H6            1 RES     
   25454 H6        -927.8966  -667.1144   882.0404 H6            1 RES     
   25455 H6        -930.6473  -666.0711   882.8643 H6            1 RES     
   25456 H6        -929.2954  -666.5174   883.9936 H6            1 RES     
   25457 H6        -930.4473  -668.4111   881.7828 H6            1 RES     
   25458 H6        -929.1345  -668.7894   882.9430 H6            1 RES     
   25459 H6        -930.7648  -668.6750   884.8321 H6            1 RES     
   25460 H6        -931.0778  -669.9422   883.5915 H6            1 RES     
   25461 H6        -932.8252  -668.5806   882.5094 H6            1 RES     
   25462 H6        -932.6027  -667.2814   883.7561 H6            1 RES     
   25463 H6        -933.1906  -668.9226   884.2372 H6            1 RES     
   25464 H6        -926.2194  -664.4514   878.4584 H6            1 RES     
   25465 H6        -926.8354  -663.2842   879.6620 H6            1 RES     
   25466 H6        -927.7646  -662.1544   878.1280 H6            1 RES     
   25467 H6        -928.0440  -662.7395   876.5311 H6            1 RES     
   25468 H6        -930.2397  -662.3484   878.7005 H6            1 RES     
   25469 H6        -930.9501  -663.4486   876.5874 H6            1 RES     
   25470 H6        -931.8835  -661.9906   877.0322 H6            1 RES     
   25471 H6        -930.8092  -660.6005   875.3248 H6            1 RES     
   25472 H6        -929.6306  -661.8730   874.9549 H6            1 RES     
   25473 H6        -931.2222  -661.9308   873.1924 H6            1 RES     
   25474 H6        -931.5169  -663.3783   874.1747 H6            1 RES     
   25475 H6        -933.4773  -662.2664   875.2728 H6            1 RES     
   25476 H6        -933.6280  -662.4275   873.4948 H6            1 RES     
   25477 H6        -932.9121  -659.8240   875.0029 H6            1 RES     
   25478 H6        -934.4777  -660.2576   874.2459 H6            1 RES     
   25479 H6        -933.3753  -660.3552   871.9866 H6            1 RES     
   25480 H6        -933.2263  -658.7372   872.7718 H6            1 RES     
   25481 H6        -931.8126  -659.8329   872.7393 H6            1 RES     
   25482 H6        -929.2027  -660.2859   878.9415 H6            1 RES     
   25483 H6        -930.6127  -659.9666   877.8924 H6            1 RES     
   25484 H6        -928.8519  -659.9721   875.9064 H6            1 RES     
   25485 H6        -927.5925  -660.0959   877.1428 H6            1 RES     
   25486 H6        -927.9422  -657.8379   876.2665 H6            1 RES     
   25487 H6        -929.6672  -657.8304   876.7693 H6            1 RES     
   25488 H6        -927.2455  -657.9805   878.7037 H6            1 RES     
   25489 H6        -928.9880  -657.9386   879.1616 H6            1 RES     
   25490 H6        -929.2280  -655.6719   878.1042 H6            1 RES     
   25491 H6        -928.0488  -655.7367   879.4620 H6            1 RES     
   25492 H6        -927.2958  -655.7587   876.4679 H6            1 RES     
   25493 H6        -926.1359  -655.8209   877.8427 H6            1 RES     
   25494 H6        -926.3350  -653.5771   876.7874 H6            1 RES     
   25495 H6        -928.0942  -653.5186   877.1575 H6            1 RES     
   25496 H6        -927.5544  -653.5186   879.6199 H6            1 RES     
   25497 H6        -926.7310  -652.1777   878.7582 H6            1 RES     
   25498 H6        -925.7897  -653.6435   879.2216 H6            1 RES     
   25499 C0        -925.0740  -674.1276   886.2044 C0            1 RES     
   25500 C0        -924.7065  -675.6589   886.0525 C0            1 RES     
   25501 C0        -924.3551  -675.9483   884.7773 C0            1 RES     
   25502 S1        -923.9105  -677.5484   884.5348 S1            1 RES     
   25503 C0        -924.1553  -677.9690   886.1628 C0            1 RES     
   25504 C0        -924.6646  -676.8464   886.8313 C0            1 RES     
   25505 C0        -924.5394  -674.8052   883.9627 C0            1 RES     
   25506 C0        -924.9531  -673.8074   884.7104 C0            1 RES     
   25507 C0        -925.3521  -672.6904   883.9009 C0            1 RES     
   25508 C0        -925.2117  -672.9625   882.5521 C0            1 RES     
   25509 S1        -924.5058  -674.5806   882.1937 S1            1 RES     
   25510 H2        -924.9405  -676.9116   887.8518 H2            1 RES     
   25511 H2        -925.8243  -671.8342   884.2805 H2            1 RES     
   25512 N3        -923.3908  -680.5502   888.8452 N3            1 RES     
   25513 C0        -923.7937  -679.4049   888.2265 C0            1 RES     
   25514 C0        -923.7933  -679.2788   886.8118 C0            1 RES     
   25515 C0        -923.3654  -680.4107   886.0849 C0            1 RES     
   25516 N3        -923.3034  -680.4806   884.7296 N3            1 RES     
   25517 S1        -922.7445  -682.0130   884.4739 S1            1 RES     
   25518 N3        -922.5553  -682.6270   885.9921 N3            1 RES     
   25519 C0        -922.9545  -681.5893   886.7741 C0            1 RES     
   25520 C0        -922.9699  -681.6396   888.1570 C0            1 RES     
   25521 H4        -924.0808  -678.5892   888.8570 H4            1 RES     
   25522 C5        -916.8083  -681.2396   887.1889 C5            1 RES     
   25523 C5        -918.1174  -681.0294   886.4282 C5            1 RES     
   25524 C5        -919.1560  -680.2213   887.2246 C5            1 RES     
   25525 C5        -918.7308  -678.7639   887.4814 C5            1 RES     
   25526 C5        -919.8251  -677.9997   888.2421 C5            1 RES     
   25527 C5        -919.4762  -676.5009   888.3749 C5            1 RES     
   25528 C5        -920.5547  -675.6385   889.0833 C5            1 RES     
   25529 C5        -921.9312  -675.8710   888.4581 C5            1 RES     
   25530 C5        -923.0403  -674.8256   888.7371 C5            1 RES     
   25531 C5        -923.6653  -674.7289   890.1823 C5            1 RES     
   25532 C5        -924.5566  -675.9890   890.3626 C5            1 RES     
   25533 C5        -925.4379  -676.3597   891.5612 C5            1 RES     
   25534 C5        -926.1162  -677.7079   891.1496 C5            1 RES     
   25535 C5        -927.0771  -678.3613   892.1414 C5            1 RES     
   25536 C5        -928.3883  -677.6004   892.2938 C5            1 RES     
   25537 C5        -922.8947  -673.5730   887.8609 C5            1 RES     
   25538 C0        -924.2663  -673.1077   887.2203 C0            1 RES     
   25539 C5        -924.1756  -671.5553   886.8909 C5            1 RES     
   25540 C5        -925.2832  -670.6123   887.4781 C5            1 RES     
   25541 C5        -926.5577  -670.4910   886.5937 C5            1 RES     
   25542 C5        -926.4119  -669.5835   885.3491 C5            1 RES     
   25543 C5        -927.5845  -669.7107   884.3568 C5            1 RES     
   25544 C5        -928.9205  -669.1227   884.8373 C5            1 RES     
   25545 C5        -928.9059  -667.5999   885.0731 C5            1 RES     
   25546 C5        -928.5332  -666.7989   883.8215 C5            1 RES     
   25547 C5        -924.7298  -669.2084   887.9398 C5            1 RES     
   25548 C5        -923.7684  -668.4697   886.9682 C5            1 RES     
   25549 C5        -923.4496  -667.0110   887.3664 C5            1 RES     
   25550 C5        -922.7326  -666.8424   888.7207 C5            1 RES     
   25551 C5        -922.3842  -665.3679   889.0407 C5            1 RES     
   25552 C5        -921.3230  -664.7639   888.0947 C5            1 RES     
   25553 C5        -920.9784  -663.2931   888.3973 C5            1 RES     
   25554 C5        -920.3203  -663.0785   889.7603 C5            1 RES     
   25555 H6        -916.2968  -680.2756   887.3837 H6            1 RES     
   25556 H6        -916.1262  -681.8718   886.5823 H6            1 RES     
   25557 H6        -917.0052  -681.7553   888.1528 H6            1 RES     
   25558 H6        -917.9097  -680.5308   885.4562 H6            1 RES     
   25559 H6        -918.5498  -682.0313   886.2144 H6            1 RES     
   25560 H6        -920.0960  -680.2098   886.6285 H6            1 RES     
   25561 H6        -919.3650  -680.7355   888.1875 H6            1 RES     
   25562 H6        -918.5569  -678.2748   886.4966 H6            1 RES     
   25563 H6        -917.7934  -678.7221   888.0729 H6            1 RES     
   25564 H6        -920.7620  -678.1076   887.6550 H6            1 RES     
   25565 H6        -919.9748  -678.4495   889.2468 H6            1 RES     
   25566 H6        -918.5104  -676.3785   888.9105 H6            1 RES     
   25567 H6        -919.3464  -676.0997   887.3445 H6            1 RES     
   25568 H6        -920.6087  -675.8677   890.1692 H6            1 RES     
   25569 H6        -920.2507  -674.5765   888.9605 H6            1 RES     
   25570 H6        -922.2752  -676.8790   888.7561 H6            1 RES     
   25571 H6        -921.8042  -675.9069   887.3520 H6            1 RES     
   25572 H6        -923.8334  -675.2234   888.2160 H6            1 RES     
   25573 H6        -922.8728  -674.6347   890.9541 H6            1 RES     
   25574 H6        -924.3363  -673.8439   890.2454 H6            1 RES     
   25575 H6        -925.3195  -675.8828   889.5685 H6            1 RES     
   25576 H6        -923.8876  -676.8524   890.2084 H6            1 RES     
   25577 H6        -926.1992  -675.5696   891.7396 H6            1 RES     
   25578 H6        -924.8223  -676.5011   892.4735 H6            1 RES     
   25579 H6        -926.6658  -677.5836   890.1865 H6            1 RES     
   25580 H6        -925.3076  -678.4505   890.9716 H6            1 RES     
   25581 H6        -926.5785  -678.5045   893.1213 H6            1 RES     
   25582 H6        -927.3348  -679.3657   891.7324 H6            1 RES     
   25583 H6        -928.8910  -677.5017   891.3059 H6            1 RES     
   25584 H6        -928.2144  -676.5955   892.7247 H6            1 RES     
   25585 H6        -929.0617  -678.1749   892.9653 H6            1 RES     
   25586 H6        -922.2279  -673.7509   886.9895 H6            1 RES     
   25587 H6        -922.3955  -672.8137   888.5008 H6            1 RES     
   25588 H6        -923.2780  -671.2071   887.4364 H6            1 RES     
   25589 H6        -923.9087  -671.3379   885.8377 H6            1 RES     
   25590 H6        -925.6250  -671.0950   888.4215 H6            1 RES     
   25591 H6        -926.8583  -671.5198   886.3051 H6            1 RES     
   25592 H6        -927.3823  -670.0690   887.2080 H6            1 RES     
   25593 H6        -926.3001  -668.5233   885.6455 H6            1 RES     
   25594 H6        -925.4885  -669.8577   884.8053 H6            1 RES     
   25595 H6        -927.2981  -669.2155   883.4068 H6            1 RES     
   25596 H6        -927.7469  -670.7803   884.1118 H6            1 RES     
   25597 H6        -929.2402  -669.6355   885.7686 H6            1 RES     
   25598 H6        -929.6828  -669.3407   884.0576 H6            1 RES     
   25599 H6        -928.2124  -667.3367   885.8981 H6            1 RES     
   25600 H6        -929.9287  -667.2970   885.3835 H6            1 RES     
   25601 H6        -929.2187  -667.0466   882.9830 H6            1 RES     
   25602 H6        -928.6130  -665.7133   884.0375 H6            1 RES     
   25603 H6        -927.4869  -667.0000   883.5120 H6            1 RES     
   25604 H6        -924.1473  -669.3632   888.8736 H6            1 RES     
   25605 H6        -925.5956  -668.5620   888.2019 H6            1 RES     
   25606 H6        -924.1898  -668.4038   885.9563 H6            1 RES     
   25607 H6        -922.8174  -669.0364   886.8764 H6            1 RES     
   25608 H6        -922.8021  -666.6096   886.5618 H6            1 RES     
   25609 H6        -924.3919  -666.4197   887.3771 H6            1 RES     
   25610 H6        -921.7997  -667.4467   888.7390 H6            1 RES     
   25611 H6        -923.4058  -667.2104   889.5215 H6            1 RES     
   25612 H6        -923.3093  -664.7514   889.0137 H6            1 RES     
   25613 H6        -921.9839  -665.3424   890.0778 H6            1 RES     
   25614 H6        -921.7037  -664.7840   887.0543 H6            1 RES     
   25615 H6        -920.3939  -665.3731   888.1389 H6            1 RES     
   25616 H6        -920.2625  -662.9436   887.6206 H6            1 RES     
   25617 H6        -921.8941  -662.6676   888.3255 H6            1 RES     
   25618 H6        -921.0092  -663.3471   890.5860 H6            1 RES     
   25619 H6        -920.0548  -662.0054   889.8736 H6            1 RES     
   25620 H6        -919.3906  -663.6809   889.8396 H6            1 RES     
   25621 C0        -922.0455  -685.0367   892.2371 C0            1 RES     
   25622 C0        -922.0404  -686.5280   891.7091 C0            1 RES     
   25623 C0        -921.9512  -686.5632   890.3584 C0            1 RES     
   25624 S1        -921.8996  -688.1123   889.7146 S1            1 RES     
   25625 C0        -921.9855  -688.8580   891.2390 C0            1 RES     
   25626 C0        -922.1386  -687.8550   892.2070 C0            1 RES     
   25627 C0        -922.0052  -685.2452   889.8445 C0            1 RES     
   25628 C0        -922.0810  -684.3970   890.8447 C0            1 RES     
   25629 C0        -922.3472  -683.0676   890.3714 C0            1 RES     
   25630 C0        -922.4690  -683.0318   888.9942 C0            1 RES     
   25631 S1        -922.1861  -684.6162   888.1853 S1            1 RES     
   25632 H2        -922.2683  -688.1114   893.2265 H2            1 RES     
   25633 H2        -922.5642  -682.2570   891.0008 H2            1 RES     
   25634 N3        -921.4026  -692.0953   893.1423 N3            1 RES     
   25635 C0        -921.6384  -690.7835   892.8587 C0            1 RES     
   25636 C0        -921.8199  -690.3270   891.5260 C0            1 RES     
   25637 C0        -921.7560  -691.3107   890.5157 C0            1 RES     
   25638 N3        -921.9112  -691.0665   889.1884 N3            1 RES     
   25639 S1        -921.7368  -692.5678   888.5238 S1            1 RES     
   25640 N3        -921.4610  -693.5482   889.8201 N3            1 RES     
   25641 C0        -921.5092  -692.6725   890.8587 C0            1 RES     
   25642 C0        -921.3306  -693.0464   892.1791 C0            1 RES     
   25643 H4        -921.6481  -690.1036   893.6852 H4            1 RES     
   25644 C5        -915.4380  -693.5132   890.1487 C5            1 RES     
   25645 C5        -916.7697  -692.9024   889.7124 C5            1 RES     
   25646 C5        -917.4823  -692.1376   890.8408 C5            1 RES     
   25647 C5        -916.7222  -690.8806   891.3023 C5            1 RES     
   25648 C5        -917.5034  -690.1395   892.3982 C5            1 RES     
   25649 C5        -916.8265  -688.8001   892.7638 C5            1 RES     
   25650 C5        -917.5790  -687.9555   893.8263 C5            1 RES     
   25651 C5        -919.0504  -687.7881   893.4430 C5            1 RES     
   25652 C5        -919.8567  -686.6613   894.1365 C5            1 RES     
   25653 C5        -920.2262  -686.8029   895.6635 C5            1 RES     
   25654 C5        -921.3295  -687.8936   895.7511 C5            1 RES     
   25655 C5        -922.0828  -688.3781   896.9956 C5            1 RES     
   25656 C5        -923.0867  -689.4498   896.4562 C5            1 RES     
   25657 C5        -924.0077  -690.1414   897.4597 C5            1 RES     
   25658 C5        -925.0888  -689.2210   898.0126 C5            1 RES     
   25659 C5        -919.5779  -685.2819   893.5222 C5            1 RES     
   25660 C0        -920.8976  -684.4450   893.2650 C0            1 RES     
   25661 C5        -920.5269  -682.8994   893.2474 C5            1 RES     
   25662 C5        -921.3082  -681.9439   894.2156 C5            1 RES     
   25663 C5        -922.6437  -681.3947   893.6357 C5            1 RES     
   25664 C5        -922.4928  -680.2575   892.5975 C5            1 RES     
   25665 C5        -923.7989  -679.9380   891.8440 C5            1 RES     
   25666 C5        -924.8924  -679.2564   892.6814 C5            1 RES     
   25667 C5        -924.5180  -677.8600   893.2149 C5            1 RES     
   25668 C5        -924.1718  -676.8626   892.1048 C5            1 RES     
   25669 C5        -920.4056  -680.8091   894.8384 C5            1 RES     
   25670 C5        -919.4629  -680.0408   893.8715 C5            1 RES     
   25671 C5        -918.7845  -678.7976   894.4895 C5            1 RES     
   25672 C5        -917.8561  -679.0838   895.6865 C5            1 RES     
   25673 C5        -917.1572  -677.8120   896.2269 C5            1 RES     
   25674 C5        -916.1431  -677.1959   895.2380 C5            1 RES     
   25675 C5        -915.4513  -675.9228   895.7618 C5            1 RES     
   25676 C5        -914.5687  -676.1569   896.9878 C5            1 RES     
   25677 H6        -914.7093  -692.7280   890.4338 H6            1 RES     
   25678 H6        -915.0041  -694.0926   889.3067 H6            1 RES     
   25679 H6        -915.5961  -694.2004   891.0069 H6            1 RES     
   25680 H6        -916.6061  -692.2315   888.8408 H6            1 RES     
   25681 H6        -917.4329  -693.7332   889.3861 H6            1 RES     
   25682 H6        -918.4756  -691.8204   890.4512 H6            1 RES     
   25683 H6        -917.6517  -692.8211   891.7007 H6            1 RES     
   25684 H6        -916.5953  -690.2098   890.4230 H6            1 RES     
   25685 H6        -915.7208  -691.1454   891.6988 H6            1 RES     
   25686 H6        -918.5178  -689.9391   891.9923 H6            1 RES     
   25687 H6        -917.5957  -690.7817   893.3000 H6            1 RES     
   25688 H6        -915.7886  -688.9795   893.1176 H6            1 RES     
   25689 H6        -916.7676  -688.1948   891.8313 H6            1 RES     
   25690 H6        -917.5198  -688.4230   894.8326 H6            1 RES     
   25691 H6        -917.0767  -686.9650   893.8663 H6            1 RES     
   25692 H6        -919.5540  -688.7618   893.5899 H6            1 RES     
   25693 H6        -919.0987  -687.5819   892.3494 H6            1 RES     
   25694 H6        -920.7846  -686.7788   893.7073 H6            1 RES     
   25695 H6        -919.3267  -687.0350   896.2716 H6            1 RES     
   25696 H6        -920.6757  -685.8548   896.0329 H6            1 RES     
   25697 H6        -922.1608  -687.4699   895.1568 H6            1 RES     
   25698 H6        -920.8907  -688.7990   895.2990 H6            1 RES     
   25699 H6        -922.6227  -687.5324   897.4737 H6            1 RES     
   25700 H6        -921.3837  -688.8378   897.7246 H6            1 RES     
   25701 H6        -923.7331  -689.0060   895.6623 H6            1 RES     
   25702 H6        -922.4908  -690.2586   895.9790 H6            1 RES     
   25703 H6        -923.4121  -690.5983   898.2758 H6            1 RES     
   25704 H6        -924.5316  -690.9588   896.9121 H6            1 RES     
   25705 H6        -925.6991  -688.8040   897.1807 H6            1 RES     
   25706 H6        -924.6424  -688.3937   898.5974 H6            1 RES     
   25707 H6        -925.7627  -689.8115   898.6695 H6            1 RES     
   25708 H6        -919.1007  -685.3616   892.5214 H6            1 RES     
   25709 H6        -918.8391  -684.7958   894.1953 H6            1 RES     
   25710 H6        -919.5052  -682.8534   893.6697 H6            1 RES     
   25711 H6        -920.3782  -682.4882   892.2293 H6            1 RES     
   25712 H6        -921.6021  -682.5694   895.0887 H6            1 RES     
   25713 H6        -923.1964  -682.2565   893.2069 H6            1 RES     
   25714 H6        -923.2591  -680.9931   894.4696 H6            1 RES     
   25715 H6        -922.1144  -679.3345   893.0765 H6            1 RES     
   25716 H6        -921.7400  -680.5520   891.8424 H6            1 RES     
   25717 H6        -923.5568  -679.2893   890.9777 H6            1 RES     
   25718 H6        -924.2205  -680.8733   891.4222 H6            1 RES     
   25719 H6        -925.1732  -679.9116   893.5324 H6            1 RES     
   25720 H6        -925.7902  -679.1460   892.0347 H6            1 RES     
   25721 H6        -923.6702  -677.9259   893.9274 H6            1 RES     
   25722 H6        -925.3951  -677.4652   893.7708 H6            1 RES     
   25723 H6        -925.0106  -676.7800   891.3808 H6            1 RES     
   25724 H6        -923.9850  -675.8627   892.5484 H6            1 RES     
   25725 H6        -923.2501  -677.1645   891.5659 H6            1 RES     
   25726 H6        -919.7383  -681.2808   895.5916 H6            1 RES     
   25727 H6        -921.0648  -680.1022   895.3877 H6            1 RES     
   25728 H6        -920.0052  -679.6637   892.9942 H6            1 RES     
   25729 H6        -918.6791  -680.7270   893.4855 H6            1 RES     
   25730 H6        -918.1922  -678.3362   893.6745 H6            1 RES     
   25731 H6        -919.5665  -678.0701   894.8009 H6            1 RES     
   25732 H6        -917.0816  -679.8288   895.4020 H6            1 RES     
   25733 H6        -918.4665  -679.5076   896.5096 H6            1 RES     
   25734 H6        -917.9228  -677.0545   896.5041 H6            1 RES     
   25735 H6        -916.6120  -678.1040   897.1511 H6            1 RES     
   25736 H6        -916.6687  -676.9013   894.3081 H6            1 RES     
   25737 H6        -915.3695  -677.9512   894.9782 H6            1 RES     
   25738 H6        -914.8000  -675.5298   894.9499 H6            1 RES     
   25739 H6        -916.2126  -675.1478   895.9958 H6            1 RES     
   25740 H6        -915.1694  -676.4890   897.8580 H6            1 RES     
   25741 H6        -914.0662  -675.2049   897.2640 H6            1 RES     
   25742 H6        -913.7879  -676.9140   896.7628 H6            1 RES     
   25743 C0        -920.5613  -697.4233   895.2276 C0            1 RES     
   25744 C0        -920.9530  -698.7237   894.4161 C0            1 RES     
   25745 C0        -921.0739  -698.4520   893.0951 C0            1 RES     
   25746 S1        -921.4502  -699.7882   892.1517 S1            1 RES     
   25747 C0        -921.4673  -700.8478   893.4800 C0            1 RES     
   25748 C0        -921.2579  -700.0927   894.6429 C0            1 RES     
   25749 C0        -920.9203  -697.0612   892.8802 C0            1 RES     
   25750 C0        -920.6645  -696.4752   894.0277 C0            1 RES     
   25751 C0        -920.7074  -695.0459   893.8950 C0            1 RES     
   25752 C0        -921.0207  -694.6632   892.6034 C0            1 RES     
   25753 S1        -921.2056  -696.0344   891.4500 S1            1 RES     
   25754 H2        -921.2873  -700.5571   895.5944 H2            1 RES     
   25755 H2        -920.6507  -694.3829   894.7059 H2            1 RES     
   25756 N3        -921.3152  -704.4951   894.5366 N3            1 RES     
   25757 C0        -921.3044  -703.1331   894.5765 C0            1 RES     
   25758 C0        -921.5790  -702.3486   893.4248 C0            1 RES     
   25759 C0        -921.8767  -703.0597   892.2423 C0            1 RES     
   25760 N3        -922.1704  -702.4838   891.0475 N3            1 RES     
   25761 S1        -922.4210  -703.7909   890.0704 S1            1 RES     
   25762 N3        -922.1727  -705.0839   891.0625 N3            1 RES     
   25763 C0        -921.8788  -704.4855   892.2471 C0            1 RES     
   25764 C0        -921.5912  -705.1877   893.4044 C0            1 RES     
   25765 H4        -921.0464  -702.6781   895.5103 H4            1 RES     
   25766 C5        -916.3005  -706.1832   890.2294 C5            1 RES     
   25767 C5        -917.5204  -705.2628   890.1903 C5            1 RES     
   25768 C5        -917.8784  -704.6753   891.5660 C5            1 RES     
   25769 C5        -916.8077  -703.7170   892.1191 C5            1 RES     
   25770 C5        -917.2417  -703.1325   893.4720 C5            1 RES     
   25771 C5        -916.2479  -702.0581   893.9657 C5            1 RES     
   25772 C5        -916.6371  -701.3718   895.3022 C5            1 RES     
   25773 C5        -918.0788  -700.8631   895.2505 C5            1 RES     
   25774 C5        -918.5143  -699.8101   896.3004 C5            1 RES     
   25775 C5        -918.6757  -700.2433   897.8086 C5            1 RES     
   25776 C5        -919.9613  -701.1131   897.8824 C5            1 RES     
   25777 C5        -920.6085  -701.7398   899.1231 C5            1 RES     
   25778 C5        -921.8866  -702.4598   898.5798 C5            1 RES     
   25779 C5        -922.7756  -703.1977   899.5792 C5            1 RES     
   25780 C5        -923.5412  -702.2603   900.5048 C5            1 RES     
   25781 C5        -918.0409  -698.3950   895.9379 C5            1 RES     
   25782 C0        -919.1745  -697.3032   896.1146 C0            1 RES     
   25783 C5        -918.4888  -695.8871   896.3411 C5            1 RES     
   25784 C5        -918.8961  -695.0673   897.6150 C5            1 RES     
   25785 C5        -920.1540  -694.1710   897.4264 C5            1 RES     
   25786 C5        -919.9186  -692.8643   896.6321 C5            1 RES     
   25787 C5        -921.2229  -692.1513   896.2243 C5            1 RES     
   25788 C5        -922.0095  -691.5075   897.3768 C5            1 RES     
   25789 C5        -921.2708  -690.3655   898.1014 C5            1 RES     
   25790 C5        -920.8873  -689.2095   897.1722 C5            1 RES     
   25791 C5        -917.6900  -694.2891   898.2708 C5            1 RES     
   25792 C5        -916.7583  -693.4904   897.3179 C5            1 RES     
   25793 C5        -915.7462  -692.5681   898.0341 C5            1 RES     
   25794 C5        -914.7340  -693.2885   898.9469 C5            1 RES     
   25795 C5        -913.7076  -692.3241   899.5905 C5            1 RES     
   25796 C5        -912.7427  -691.6781   898.5718 C5            1 RES     
   25797 C5        -911.7252  -690.7073   899.2011 C5            1 RES     
   25798 C5        -910.7418  -691.3767   900.1611 C5            1 RES     
   25799 H6        -915.3869  -705.6283   890.5230 H6            1 RES     
   25800 H6        -916.1296  -706.6128   889.2198 H6            1 RES     
   25801 H6        -916.4732  -707.0160   890.9438 H6            1 RES     
   25802 H6        -917.3477  -704.4433   889.4587 H6            1 RES     
   25803 H6        -918.3866  -705.8629   889.8352 H6            1 RES     
   25804 H6        -918.8274  -704.1058   891.4472 H6            1 RES     
   25805 H6        -918.0611  -705.5030   892.2850 H6            1 RES     
   25806 H6        -916.6716  -702.8895   891.3871 H6            1 RES     
   25807 H6        -915.8386  -704.2395   892.2538 H6            1 RES     
   25808 H6        -918.2385  -702.6670   893.3178 H6            1 RES     
   25809 H6        -917.3349  -703.9442   894.2248 H6            1 RES     
   25810 H6        -915.2317  -702.4953   894.0698 H6            1 RES     
   25811 H6        -916.1994  -701.2685   893.1824 H6            1 RES     
   25812 H6        -916.5312  -702.0678   896.1618 H6            1 RES     
   25813 H6        -915.9345  -700.5228   895.4458 H6            1 RES     
   25814 H6        -918.7515  -701.7401   895.2900 H6            1 RES     
   25815 H6        -918.2430  -700.3979   894.2518 H6            1 RES     
   25816 H6        -919.4988  -699.6579   896.0425 H6            1 RES     
   25817 H6        -917.7670  -700.7671   898.1726 H6            1 RES     
   25818 H6        -918.8527  -699.3465   898.4425 H6            1 RES     
   25819 H6        -920.7613  -700.4215   897.5576 H6            1 RES     
   25820 H6        -919.7979  -701.9476   897.1799 H6            1 RES     
   25821 H6        -920.8785  -700.9507   899.8579 H6            1 RES     
   25822 H6        -919.9240  -702.4745   899.5953 H6            1 RES     
   25823 H6        -922.5332  -701.7339   898.0320 H6            1 RES     
   25824 H6        -921.5545  -703.2235   897.8427 H6            1 RES     
   25825 H6        -922.1775  -703.9324   900.1554 H6            1 RES     
   25826 H6        -923.5370  -703.7569   898.9876 H6            1 RES     
   25827 H6        -924.1643  -701.5574   899.9081 H6            1 RES     
   25828 H6        -922.8470  -701.6869   901.1490 H6            1 RES     
   25829 H6        -924.2211  -702.8626   901.1446 H6            1 RES     
   25830 H6        -917.7450  -698.3169   894.8693 H6            1 RES     
   25831 H6        -917.1242  -698.2198   896.5413 H6            1 RES     
   25832 H6        -917.4300  -696.1224   896.5599 H6            1 RES     
   25833 H6        -918.4078  -695.2784   895.4188 H6            1 RES     
   25834 H6        -919.1846  -695.8209   898.3823 H6            1 RES     
   25835 H6        -920.9353  -694.7958   896.9453 H6            1 RES     
   25836 H6        -920.5393  -693.8776   898.4268 H6            1 RES     
   25837 H6        -919.2853  -692.1624   897.2072 H6            1 RES     
   25838 H6        -919.3661  -693.0981   895.7027 H6            1 RES     
   25839 H6        -920.9785  -691.3681   895.4782 H6            1 RES     
   25840 H6        -921.8922  -692.8709   895.7099 H6            1 RES     
   25841 H6        -922.2950  -692.2865   898.1144 H6            1 RES     
   25842 H6        -922.9485  -691.0911   896.9507 H6            1 RES     
   25843 H6        -920.3610  -690.7463   898.6094 H6            1 RES     
   25844 H6        -921.9513  -689.9668   898.8837 H6            1 RES     
   25845 H6        -921.7866  -688.8118   896.6549 H6            1 RES     
   25846 H6        -920.4277  -688.3923   897.7658 H6            1 RES     
   25847 H6        -920.1413  -689.5313   896.4165 H6            1 RES     
   25848 H6        -917.0351  -695.0356   898.7699 H6            1 RES     
   25849 H6        -918.0944  -693.6287   899.0685 H6            1 RES     
   25850 H6        -917.3309  -692.8268   896.6565 H6            1 RES     
   25851 H6        -916.2051  -694.1916   896.6573 H6            1 RES     
   25852 H6        -915.1961  -692.0375   897.2319 H6            1 RES     
   25853 H6        -916.3000  -691.8101   898.6312 H6            1 RES     
   25854 H6        -914.1874  -694.0684   898.3735 H6            1 RES     
   25855 H6        -915.2925  -693.7821   899.7680 H6            1 RES     
   25856 H6        -914.2441  -691.5321   900.1577 H6            1 RES     
   25857 H6        -913.1070  -692.9181   900.3137 H6            1 RES     
   25858 H6        -913.3246  -691.0837   897.8399 H6            1 RES     
   25859 H6        -912.1954  -692.4735   898.0203 H6            1 RES     
   25860 H6        -911.1322  -690.2530   898.3766 H6            1 RES     
   25861 H6        -912.2602  -689.8891   899.7296 H6            1 RES     
   25862 H6        -911.2643  -691.7956   901.0443 H6            1 RES     
   25863 H6        -910.0124  -690.6208   900.5237 H6            1 RES     
   25864 H6        -910.1828  -692.1834   899.6413 H6            1 RES     
   25865 C0        -921.3333  -710.2285   895.2927 C0            1 RES     
   25866 C0        -922.1093  -711.2097   894.3242 C0            1 RES     
   25867 C0        -922.3632  -710.6151   893.1343 C0            1 RES     
   25868 S1        -923.1514  -711.6018   892.0289 S1            1 RES     
   25869 C0        -923.1982  -712.9267   893.0918 C0            1 RES     
   25870 C0        -922.6628  -712.5181   894.3217 C0            1 RES     
   25871 C0        -921.9493  -709.2621   893.1817 C0            1 RES     
   25872 C0        -921.4076  -709.0195   894.3536 C0            1 RES     
   25873 C0        -921.1632  -707.6149   894.5252 C0            1 RES     
   25874 C0        -921.5747  -706.8875   893.4232 C0            1 RES     
   25875 S1        -922.2167  -707.8913   892.0723 S1            1 RES     
   25876 H2        -922.6499  -713.1828   895.1464 H2            1 RES     
   25877 H2        -920.8470  -707.1840   895.4278 H2            1 RES     
   25878 N3        -923.6746  -716.6892   893.3347 N3            1 RES     
   25879 C0        -923.3672  -715.3992   893.6481 C0            1 RES     
   25880 C0        -923.6348  -714.3280   892.7548 C0            1 RES     
   25881 C0        -924.2490  -714.6744   891.5319 C0            1 RES     
   25882 N3        -924.5861  -713.7889   890.5583 N3            1 RES     
   25883 S1        -925.2516  -714.7618   889.4023 S1            1 RES     
   25884 N3        -925.1417  -716.2763   890.0439 N3            1 RES     
   25885 C0        -924.5550  -716.0374   891.2466 C0            1 RES     
   25886 C0        -924.2564  -717.0337   892.1597 C0            1 RES     
   25887 H4        -922.8830  -715.2315   894.5877 H4            1 RES     
   25888 C5        -919.8290  -718.1570   887.8935 C5            1 RES     
   25889 C5        -920.8161  -717.0547   888.2774 C5            1 RES     
   25890 C5        -920.8331  -716.7576   889.7865 C5            1 RES     
   25891 C5        -919.5126  -716.1608   890.3071 C5            1 RES     
   25892 C5        -919.6071  -715.8476   891.8083 C5            1 RES     
   25893 C5        -918.3449  -715.1124   892.3103 C5            1 RES     
   25894 C5        -918.3767  -714.7060   893.8077 C5            1 RES     
   25895 C5        -919.6678  -713.9553   894.1383 C5            1 RES     
   25896 C5        -919.7082  -713.1223   895.4441 C5            1 RES     
   25897 C5        -919.7339  -713.8663   896.8349 C5            1 RES     
   25898 C5        -921.1504  -714.4897   896.9755 C5            1 RES     
   25899 C5        -921.7260  -715.2699   898.1633 C5            1 RES     
   25900 C5        -923.1943  -715.6049   897.7403 C5            1 RES     
   25901 C5        -924.0629  -716.3917   898.7203 C5            1 RES     
   25902 C5        -924.4652  -715.5819   899.9466 C5            1 RES     
   25903 C5        -919.0022  -711.7670   895.2933 C5            1 RES     
   25904 C0        -919.8374  -710.5673   895.9027 C0            1 RES     
   25905 C5        -918.8392  -709.3881   896.2768 C5            1 RES     
   25906 C5        -918.8692  -708.8362   897.7448 C5            1 RES     
   25907 C5        -919.9203  -707.7147   897.9876 C5            1 RES     
   25908 C5        -919.5310  -706.3188   897.4458 C5            1 RES     
   25909 C5        -920.6984  -705.3122   897.4497 C5            1 RES     
   25910 C5        -921.1502  -704.8331   898.8382 C5            1 RES     
   25911 C5        -920.0858  -704.0435   899.6245 C5            1 RES     
   25912 C5        -919.6056  -702.7854   898.8940 C5            1 RES     
   25913 C5        -917.4414  -708.4596   898.3014 C5            1 RES     
   25914 C5        -916.5117  -707.6333   897.3703 C5            1 RES     
   25915 C5        -915.2315  -707.0994   898.0515 C5            1 RES     
   25916 C5        -914.2732  -708.1818   898.5870 C5            1 RES     
   25917 C5        -912.9808  -707.5930   899.2042 C5            1 RES     
   25918 C5        -912.0614  -706.9028   898.1725 C5            1 RES     
   25919 C5        -910.7785  -706.3028   898.7790 C5            1 RES     
   25920 C5        -909.8301  -707.3427   899.3758 C5            1 RES     
   25921 H6        -918.7848  -717.8566   888.1131 H6            1 RES     
   25922 H6        -919.9050  -718.3576   886.8041 H6            1 RES     
   25923 H6        -920.0683  -719.0922   888.4431 H6            1 RES     
   25924 H6        -920.5823  -716.1282   887.7087 H6            1 RES     
   25925 H6        -921.8333  -717.3921   887.9806 H6            1 RES     
   25926 H6        -921.6453  -716.0190   889.9704 H6            1 RES     
   25927 H6        -921.0802  -717.6871   890.3434 H6            1 RES     
   25928 H6        -919.3126  -715.2200   889.7467 H6            1 RES     
   25929 H6        -918.6686  -716.8617   890.1441 H6            1 RES     
   25930 H6        -920.4929  -715.1917   891.9462 H6            1 RES     
   25931 H6        -919.7593  -716.7857   892.3837 H6            1 RES     
   25932 H6        -917.4416  -715.7328   892.1261 H6            1 RES     
   25933 H6        -918.2449  -714.1804   891.7095 H6            1 RES     
   25934 H6        -918.2961  -715.5938   894.4710 H6            1 RES     
   25935 H6        -917.4955  -714.0520   893.9836 H6            1 RES     
   25936 H6        -920.4989  -714.6848   894.1268 H6            1 RES     
   25937 H6        -919.8744  -713.2447   893.3057 H6            1 RES     
   25938 H6        -920.6645  -712.7432   895.4165 H6            1 RES     
   25939 H6        -918.9145  -714.6123   896.9034 H6            1 RES     
   25940 H6        -919.6195  -713.1290   897.6600 H6            1 RES     
   25941 H6        -921.8230  -713.6117   896.9579 H6            1 RES     
   25942 H6        -921.2746  -715.1488   896.0998 H6            1 RES     
   25943 H6        -921.7096  -714.6432   899.0812 H6            1 RES     
   25944 H6        -921.1522  -716.2039   898.3357 H6            1 RES     
   25945 H6        -923.7445  -714.6681   897.4862 H6            1 RES     
   25946 H6        -923.1457  -716.2177   896.8135 H6            1 RES     
   25947 H6        -923.5572  -717.3354   899.0091 H6            1 RES     
   25948 H6        -925.0050  -716.6521   898.1846 H6            1 RES     
   25949 H6        -925.0048  -714.6594   899.6363 H6            1 RES     
   25950 H6        -923.5771  -715.3087   900.5485 H6            1 RES     
   25951 H6        -925.1559  -716.1903   900.5688 H6            1 RES     
   25952 H6        -918.8576  -711.4904   894.2265 H6            1 RES     
   25953 H6        -917.9904  -711.9035   895.7324 H6            1 RES     
   25954 H6        -917.8347  -709.8504   896.2358 H6            1 RES     
   25955 H6        -918.7671  -708.6016   895.4996 H6            1 RES     
   25956 H6        -919.1955  -709.6880   898.3835 H6            1 RES     
   25957 H6        -920.8793  -708.0606   897.5485 H6            1 RES     
   25958 H6        -920.0818  -707.6046   899.0817 H6            1 RES     
   25959 H6        -918.6845  -705.8957   898.0192 H6            1 RES     
   25960 H6        -919.1847  -706.4182   896.3999 H6            1 RES     
   25961 H6        -920.4052  -704.4295   896.8458 H6            1 RES     
   25962 H6        -921.5745  -705.7604   896.9377 H6            1 RES     
   25963 H6        -921.4834  -705.7027   899.4425 H6            1 RES     
   25964 H6        -922.0309  -704.1697   898.6939 H6            1 RES     
   25965 H6        -919.2135  -704.6873   899.8601 H6            1 RES     
   25966 H6        -920.5422  -703.7293   900.5873 H6            1 RES     
   25967 H6        -920.4654  -702.1250   898.6509 H6            1 RES     
   25968 H6        -918.8995  -702.2261   899.5421 H6            1 RES     
   25969 H6        -919.0657  -703.0440   897.9599 H6            1 RES     
   25970 H6        -916.8948  -709.4061   898.5030 H6            1 RES     
   25971 H6        -917.5729  -707.9474   899.2793 H6            1 RES     
   25972 H6        -917.0205  -706.7418   896.9803 H6            1 RES     
   25973 H6        -916.2249  -708.2432   896.4873 H6            1 RES     
   25974 H6        -914.7053  -706.4982   897.2837 H6            1 RES     
   25975 H6        -915.5160  -706.4201   898.8853 H6            1 RES     
   25976 H6        -913.9967  -708.8865   897.7729 H6            1 RES     
   25977 H6        -914.7967  -708.7507   899.3820 H6            1 RES     
   25978 H6        -913.2459  -706.8771   900.0129 H6            1 RES     
   25979 H6        -912.4210  -708.4375   899.6624 H6            1 RES     
   25980 H6        -912.6045  -706.0590   897.7025 H6            1 RES     
   25981 H6        -911.7844  -707.6275   897.3761 H6            1 RES     
   25982 H6        -910.2306  -705.7767   897.9661 H6            1 RES     
   25983 H6        -911.0422  -705.5530   899.5556 H6            1 RES     
   25984 H6        -910.2938  -707.8612   900.2387 H6            1 RES     
   25985 H6        -908.9106  -706.8343   899.7378 H6            1 RES     
   25986 H6        -909.5395  -708.0879   898.6052 H6            1 RES     
   25987 C0        -924.8057  -722.3437   892.8972 C0            1 RES     
   25988 C0        -925.9078  -722.9152   891.9165 C0            1 RES     
   25989 C0        -926.2016  -722.0200   890.9439 C0            1 RES     
   25990 S1        -927.3369  -722.5621   889.8330 S1            1 RES     
   25991 C0        -927.5082  -724.0724   890.5927 C0            1 RES     
   25992 C0        -926.7222  -724.0679   891.7540 C0            1 RES     
   25993 C0        -925.5058  -720.8109   891.1853 C0            1 RES     
   25994 C0        -924.7578  -720.9524   892.2558 C0            1 RES     
   25995 C0        -924.1962  -719.6939   892.6596 C0            1 RES     
   25996 C0        -924.6010  -718.6651   891.8286 C0            1 RES     
   25997 S1        -925.6349  -719.1909   890.4505 S1            1 RES     
   25998 H2        -926.7300  -724.9011   892.4080 H2            1 RES     
   25999 H2        -923.6655  -719.5520   893.5532 H2            1 RES     
   26000 N3        -928.7365  -727.6415   890.1516 N3            1 RES     
   26001 C0        -928.1177  -726.5373   890.6561 C0            1 RES     
   26002 C0        -928.2791  -725.2547   890.0678 C0            1 RES     
   26003 C0        -929.1269  -725.1876   888.9410 C0            1 RES     
   26004 N3        -929.4069  -724.0513   888.2513 N3            1 RES     
   26005 S1        -930.4283  -724.5897   887.0711 S1            1 RES     
   26006 N3        -930.5510  -726.2084   887.3577 N3            1 RES     
   26007 C0        -929.7557  -726.3686   888.4485 C0            1 RES     
   26008 C0        -929.5454  -727.5896   889.0650 C0            1 RES     
   26009 H4        -927.4754  -726.6850   891.4994 H4            1 RES     
   26010 C5        -926.1402  -728.4248   883.8910 C5            1 RES     
   26011 C5        -926.8012  -727.2900   884.6733 C5            1 RES     
   26012 C5        -926.5312  -727.3615   886.1859 C5            1 RES     
   26013 C5        -925.0516  -727.1462   886.5538 C5            1 RES     
   26014 C5        -924.8542  -727.1871   888.0769 C5            1 RES     
   26015 C5        -923.4040  -726.8249   888.4663 C5            1 RES     
   26016 C5        -923.1267  -726.7868   889.9928 C5            1 RES     
   26017 C5        -924.1643  -725.9219   890.7107 C5            1 RES     
   26018 C5        -923.8324  -725.4291   892.1417 C5            1 RES     
   26019 C5        -923.8108  -726.4658   893.3305 C5            1 RES     
   26020 C5        -925.2911  -726.8469   893.6103 C5            1 RES     
   26021 C5        -925.8382  -727.7737   894.7024 C5            1 RES     
   26022 C5        -927.3902  -727.7362   894.5099 C5            1 RES     
   26023 C5        -928.2524  -728.5687   895.4572 C5            1 RES     
   26024 C5        -928.2867  -728.0157   896.8766 C5            1 RES     
   26025 C5        -922.8833  -724.2220   892.1373 C5            1 RES     
   26026 C0        -923.3435  -723.0742   893.1268 C0            1 RES     
   26027 C5        -922.0723  -722.2113   893.5344 C5            1 RES     
   26028 C5        -921.7664  -722.0274   895.0619 C5            1 RES     
   26029 C5        -922.5059  -720.8295   895.7249 C5            1 RES     
   26030 C5        -921.9118  -719.4351   895.4142 C5            1 RES     
   26031 C5        -922.8233  -718.2700   895.8468 C5            1 RES     
   26032 C5        -922.9522  -718.0629   897.3640 C5            1 RES     
   26033 C5        -921.6394  -717.6816   898.0754 C5            1 RES     
   26034 C5        -921.0148  -716.3901   897.5381 C5            1 RES     
   26035 C5        -920.2249  -722.0498   895.3989 C5            1 RES     
   26036 C5        -919.2881  -721.2019   894.4948 C5            1 RES     
   26037 C5        -917.8372  -721.0778   895.0118 C5            1 RES     
   26038 C5        -917.0640  -722.4070   895.1217 C5            1 RES     
   26039 C5        -915.5990  -722.2173   895.5862 C5            1 RES     
   26040 C5        -914.7161  -721.4737   894.5597 C5            1 RES     
   26041 C5        -913.2594  -721.2693   895.0180 C5            1 RES     
   26042 C5        -912.4776  -722.5706   895.1973 C5            1 RES     
   26043 H6        -925.0353  -728.3728   883.9626 H6            1 RES     
   26044 H6        -926.4173  -728.3443   882.8187 H6            1 RES     
   26045 H6        -926.4900  -729.4070   884.2742 H6            1 RES     
   26046 H6        -926.4614  -726.3106   884.2710 H6            1 RES     
   26047 H6        -927.8993  -727.3637   884.5148 H6            1 RES     
   26048 H6        -927.1305  -726.5573   886.6686 H6            1 RES     
   26049 H6        -926.8862  -728.3387   886.5788 H6            1 RES     
   26050 H6        -924.7402  -726.1493   886.1688 H6            1 RES     
   26051 H6        -924.4105  -727.9250   886.0927 H6            1 RES     
   26052 H6        -925.5491  -726.4380   888.5128 H6            1 RES     
   26053 H6        -925.1167  -728.1934   888.4676 H6            1 RES     
   26054 H6        -922.6916  -727.5321   887.9899 H6            1 RES     
   26055 H6        -923.1971  -725.8092   888.0601 H6            1 RES     
   26056 H6        -923.1407  -727.8067   890.4334 H6            1 RES     
   26057 H6        -922.1100  -726.3579   890.1256 H6            1 RES     
   26058 H6        -925.1245  -726.4707   890.7107 H6            1 RES     
   26059 H6        -924.3349  -725.0090   890.0956 H6            1 RES     
   26060 H6        -924.6789  -724.8929   892.3758 H6            1 RES     
   26061 H6        -923.1688  -727.3384   893.0872 H6            1 RES     
   26062 H6        -923.4209  -725.9774   894.2507 H6            1 RES     
   26063 H6        -925.7556  -725.8860   893.9012 H6            1 RES     
   26064 H6        -925.6813  -727.2468   892.6593 H6            1 RES     
   26065 H6        -925.5529  -727.3959   895.7080 H6            1 RES     
   26066 H6        -925.4583  -728.8076   894.5677 H6            1 RES     
   26067 H6        -927.7589  -726.6844   894.5622 H6            1 RES     
   26068 H6        -927.6111  -728.1101   893.4860 H6            1 RES     
   26069 H6        -927.9231  -729.6274   895.4455 H6            1 RES     
   26070 H6        -929.2969  -728.5253   895.0707 H6            1 RES     
   26071 H6        -928.6564  -726.9662   896.8700 H6            1 RES     
   26072 H6        -927.2818  -728.0532   897.3398 H6            1 RES     
   26073 H6        -928.9918  -728.6239   897.4827 H6            1 RES     
   26074 H6        -922.8421  -723.7296   891.1416 H6            1 RES     
   26075 H6        -921.8706  -724.6339   892.3369 H6            1 RES     
   26076 H6        -921.2071  -722.8190   893.2082 H6            1 RES     
   26077 H6        -921.9494  -721.2878   892.9345 H6            1 RES     
   26078 H6        -922.1693  -722.9358   895.5644 H6            1 RES     
   26079 H6        -923.5708  -720.8877   895.4170 H6            1 RES     
   26080 H6        -922.4768  -720.9558   896.8288 H6            1 RES     
   26081 H6        -920.9192  -719.3153   895.8884 H6            1 RES     
   26082 H6        -921.7531  -719.3423   894.3234 H6            1 RES     
   26083 H6        -922.4408  -717.3345   895.3904 H6            1 RES     
   26084 H6        -923.8408  -718.4231   895.4322 H6            1 RES     
   26085 H6        -923.3705  -718.9790   897.8312 H6            1 RES     
   26086 H6        -923.6822  -717.2405   897.5296 H6            1 RES     
   26087 H6        -920.8999  -718.5055   898.0032 H6            1 RES     
   26088 H6        -921.8708  -717.5302   899.1514 H6            1 RES     
   26089 H6        -921.7399  -715.5508   897.6040 H6            1 RES     
   26090 H6        -920.1177  -716.1333   898.1386 H6            1 RES     
   26091 H6        -920.6866  -716.5098   896.4850 H6            1 RES     
   26092 H6        -919.8696  -723.0977   895.2949 H6            1 RES     
   26093 H6        -920.0981  -721.7696   896.4673 H6            1 RES     
   26094 H6        -919.6466  -720.1683   894.3994 H6            1 RES     
   26095 H6        -919.2719  -721.6251   893.4678 H6            1 RES     
   26096 H6        -917.3140  -720.4131   894.2960 H6            1 RES     
   26097 H6        -917.8436  -720.5770   896.0052 H6            1 RES     
   26098 H6        -917.0678  -722.9353   894.1436 H6            1 RES     
   26099 H6        -917.5737  -723.0477   895.8697 H6            1 RES     
   26100 H6        -915.5825  -721.6790   896.5591 H6            1 RES     
   26101 H6        -915.1712  -723.2311   895.7468 H6            1 RES     
   26102 H6        -915.1296  -720.4609   894.3844 H6            1 RES     
   26103 H6        -914.7211  -722.0255   893.5944 H6            1 RES     
   26104 H6        -912.7379  -720.6694   894.2395 H6            1 RES     
   26105 H6        -913.2391  -720.6911   895.9668 H6            1 RES     
   26106 H6        -912.9087  -723.1898   896.0092 H6            1 RES     
   26107 H6        -911.4276  -722.3319   895.4718 H6            1 RES     
   26108 H6        -912.4700  -723.1505   894.2500 H6            1 RES     
   26109 C0        -931.1017  -732.7422   888.7977 C0            1 RES     
   26110 C0        -932.4329  -732.8623   887.9513 C0            1 RES     
   26111 C0        -932.6690  -731.7245   887.2561 C0            1 RES     
   26112 S1        -934.0453  -731.7798   886.2971 S1            1 RES     
   26113 C0        -934.4212  -733.3732   886.7520 C0            1 RES     
   26114 C0        -933.4898  -733.7824   887.7170 C0            1 RES     
   26115 C0        -931.7031  -730.7484   887.6005 C0            1 RES     
   26116 C0        -930.8528  -731.2689   888.4560 C0            1 RES     
   26117 C0        -929.9820  -730.2607   888.9920 C0            1 RES     
   26118 C0        -930.2757  -729.0095   888.4812 C0            1 RES     
   26119 S1        -931.5901  -729.0034   887.2495 S1            1 RES     
   26120 H2        -933.5787  -734.7325   888.1768 H2            1 RES     
   26121 H2        -929.3072  -730.4303   889.7770 H2            1 RES     
   26122 N3        -936.4352  -736.4635   885.8377 N3            1 RES     
   26123 C0        -935.5272  -735.6367   886.4281 C0            1 RES     
   26124 C0        -935.4959  -734.2432   886.1553 C0            1 RES     
   26125 C0        -936.4666  -733.7630   885.2499 C0            1 RES     
   26126 N3        -936.5961  -732.4644   884.8726 N3            1 RES     
   26127 S1        -937.8717  -732.5196   883.8259 S1            1 RES     
   26128 N3        -938.2938  -734.1129   883.7952 N3            1 RES     
   26129 C0        -937.3990  -734.6643   884.6573 C0            1 RES     
   26130 C0        -937.3658  -736.0142   884.9603 C0            1 RES     
   26131 H4        -934.8140  -736.0906   887.0844 H4            1 RES     
   26132 C5        -935.0202  -736.1793   879.1695 C5            1 RES     
   26133 C5        -935.3004  -735.1652   880.2783 C5            1 RES     
   26134 C5        -934.8315  -735.6401   881.6642 C5            1 RES     
   26135 C5        -933.3024  -735.7809   881.7773 C5            1 RES     
   26136 C5        -932.8955  -736.2163   883.1934 C5            1 RES     
   26137 C5        -931.3603  -736.2167   883.3627 C5            1 RES     
   26138 C5        -930.8588  -736.5914   884.7828 C5            1 RES     
   26139 C5        -931.5699  -735.7539   885.8471 C5            1 RES     
   26140 C5        -930.9327  -735.6812   887.2577 C5            1 RES     
   26141 C5        -930.9579  -736.9579   888.1838 C5            1 RES     
   26142 C5        -932.4274  -737.1292   888.6590 C5            1 RES     
   26143 C5        -932.9925  -738.1784   889.6238 C5            1 RES     
   26144 C5        -934.5117  -737.8251   889.7444 C5            1 RES     
   26145 C5        -935.3822  -738.6945   890.6500 C5            1 RES     
   26146 C5        -935.0875  -738.4974   892.1318 C5            1 RES     
   26147 C5        -929.7590  -734.6929   887.3170 C5            1 RES     
   26148 C0        -929.8119  -733.7507   888.5889 C0            1 RES     
   26149 C5        -928.3397  -733.2457   888.9120 C5            1 RES     
   26150 C5        -927.7795  -733.4864   890.3572 C5            1 RES     
   26151 C5        -928.1396  -732.3698   891.3795 C5            1 RES     
   26152 C5        -927.3138  -731.0678   891.2509 C5            1 RES     
   26153 C5        -927.8812  -729.8977   892.0783 C5            1 RES     
   26154 C5        -927.7373  -730.0377   893.6019 C5            1 RES     
   26155 C5        -926.2830  -730.0723   894.1106 C5            1 RES     
   26156 C5        -925.4832  -728.8200   893.7377 C5            1 RES     
   26157 C5        -926.2459  -733.8578   890.3804 C5            1 RES     
   26158 C5        -925.2936  -732.9969   889.5052 C5            1 RES     
   26159 C5        -923.7896  -733.2552   889.7484 C5            1 RES     
   26160 C5        -923.3107  -734.6868   889.4350 C5            1 RES     
   26161 C5        -921.7869  -734.8724   889.6384 C5            1 RES     
   26162 C5        -920.9270  -734.0727   888.6349 C5            1 RES     
   26163 C5        -919.4089  -734.2413   888.8369 C5            1 RES     
   26164 C5        -918.9056  -735.6641   888.5942 C5            1 RES     
   26165 H6        -933.9315  -736.3401   879.0367 H6            1 RES     
   26166 H6        -935.4289  -735.7992   878.2095 H6            1 RES     
   26167 H6        -935.5112  -737.1476   879.4045 H6            1 RES     
   26168 H6        -934.8224  -734.1933   880.0262 H6            1 RES     
   26169 H6        -936.4000  -735.0057   880.3219 H6            1 RES     
   26170 H6        -935.1671  -734.8814   882.4063 H6            1 RES     
   26171 H6        -935.3251  -736.6049   881.9106 H6            1 RES     
   26172 H6        -932.8455  -734.7914   881.5508 H6            1 RES     
   26173 H6        -932.9178  -736.5277   881.0530 H6            1 RES     
   26174 H6        -933.3421  -735.4825   883.8977 H6            1 RES     
   26175 H6        -933.3063  -737.2247   883.4141 H6            1 RES     
   26176 H6        -930.8937  -736.9040   882.6247 H6            1 RES     
   26177 H6        -931.0034  -735.1860   883.1397 H6            1 RES     
   26178 H6        -931.0252  -737.6681   885.0009 H6            1 RES     
   26179 H6        -929.7658  -736.3913   884.8025 H6            1 RES     
   26180 H6        -932.6144  -736.1101   885.9197 H6            1 RES     
   26181 H6        -931.6305  -734.7057   885.4751 H6            1 RES     
   26182 H6        -931.6011  -735.0762   887.7540 H6            1 RES     
   26183 H6        -930.5603  -737.8462   887.6495 H6            1 RES     
   26184 H6        -930.3410  -736.7781   889.0919 H6            1 RES     
   26185 H6        -932.6277  -736.1989   889.2230 H6            1 RES     
   26186 H6        -933.0302  -737.2171   887.7394 H6            1 RES     
   26187 H6        -932.4877  -738.1062   890.6114 H6            1 RES     
   26188 H6        -932.8665  -739.2007   889.2112 H6            1 RES     
   26189 H6        -934.6352  -736.7679   890.0795 H6            1 RES     
   26190 H6        -934.9561  -737.9003   888.7277 H6            1 RES     
   26191 H6        -935.2922  -739.7610   890.3600 H6            1 RES     
   26192 H6        -936.4387  -738.3783   890.4882 H6            1 RES     
   26193 H6        -935.2213  -737.4283   892.4101 H6            1 RES     
   26194 H6        -934.0568  -738.8192   892.3760 H6            1 RES     
   26195 H6        -935.8089  -739.0990   892.7252 H6            1 RES     
   26196 H6        -929.7610  -733.9932   886.4533 H6            1 RES     
   26197 H6        -928.8395  -735.3113   887.2305 H6            1 RES     
   26198 H6        -927.6823  -733.9004   888.3090 H6            1 RES     
   26199 H6        -928.1123  -732.2423   888.5004 H6            1 RES     
   26200 H6        -928.2884  -734.4032   890.7320 H6            1 RES     
   26201 H6        -929.2259  -732.1659   891.2763 H6            1 RES     
   26202 H6        -927.9755  -732.7579   892.4080 H6            1 RES     
   26203 H6        -926.2596  -731.2398   891.5401 H6            1 RES     
   26204 H6        -927.3018  -730.7478   890.1921 H6            1 RES     
   26205 H6        -927.3792  -728.9624   891.7572 H6            1 RES     
   26206 H6        -928.9577  -729.7674   891.8443 H6            1 RES     
   26207 H6        -928.2680  -730.9507   893.9442 H6            1 RES     
   26208 H6        -928.2420  -729.1635   894.0683 H6            1 RES     
   26209 H6        -925.7556  -730.9718   893.7317 H6            1 RES     
   26210 H6        -926.3152  -730.1427   895.2188 H6            1 RES     
   26211 H6        -925.9943  -727.9068   894.1110 H6            1 RES     
   26212 H6        -924.4733  -728.8744   894.1943 H6            1 RES     
   26213 H6        -925.3474  -728.7417   892.6393 H6            1 RES     
   26214 H6        -926.1421  -734.8966   889.9991 H6            1 RES     
   26215 H6        -925.9057  -733.8661   891.4388 H6            1 RES     
   26216 H6        -925.4330  -731.9240   889.6928 H6            1 RES     
   26217 H6        -925.5201  -733.1601   888.4300 H6            1 RES     
   26218 H6        -923.2480  -732.5417   889.0961 H6            1 RES     
   26219 H6        -923.5421  -733.0115   890.8053 H6            1 RES     
   26220 H6        -923.5718  -734.9585   888.3892 H6            1 RES     
   26221 H6        -923.8294  -735.3874   890.1205 H6            1 RES     
   26222 H6        -921.5122  -734.5920   890.6790 H6            1 RES     
   26223 H6        -921.5667  -735.9541   889.5042 H6            1 RES     
   26224 H6        -921.1357  -732.9909   888.7520 H6            1 RES     
   26225 H6        -921.1923  -734.3697   887.5968 H6            1 RES     
   26226 H6        -918.8922  -733.5745   888.1115 H6            1 RES     
   26227 H6        -919.1256  -733.9178   889.8616 H6            1 RES     
   26228 H6        -919.3343  -736.3732   889.3304 H6            1 RES     
   26229 H6        -917.8001  -735.6851   888.7049 H6            1 RES     
   26230 H6        -919.1621  -735.9944   887.5653 H6            1 RES     
   26231 C0        -940.0092  -740.6012   883.9536 C0            1 RES     
   26232 C0        -941.4454  -740.2818   883.3720 C0            1 RES     
   26233 C0        -941.5329  -738.9882   882.9814 C0            1 RES     
   26234 S1        -943.0154  -738.5722   882.3135 S1            1 RES     
   26235 C0        -943.6518  -740.1369   882.4981 C0            1 RES     
   26236 C0        -942.6972  -740.9203   883.1626 C0            1 RES     
   26237 C0        -940.3407  -738.3066   883.3253 C0            1 RES     
   26238 C0        -939.5045  -739.1560   883.8776 C0            1 RES     
   26239 C0        -938.3690  -738.4725   884.4303 C0            1 RES     
   26240 C0        -938.4606  -737.1042   884.2510 C0            1 RES     
   26241 S1        -939.9105  -736.5757   883.3219 S1            1 RES     
   26242 H2        -942.9182  -741.9217   883.4277 H2            1 RES     
   26243 H2        -937.6376  -738.9392   885.0199 H2            1 RES     
   26244 N3        -946.3921  -742.5198   881.3778 N3            1 RES     
   26245 C0        -945.2513  -742.0290   881.9386 C0            1 RES     
   26246 C0        -944.9636  -740.6382   881.9543 C0            1 RES     
   26247 C0        -945.9321  -739.7943   881.3691 C0            1 RES     
   26248 N3        -945.8353  -738.4413   881.2960 N3            1 RES     
   26249 S1        -947.2336  -738.0220   880.5247 S1            1 RES     
   26250 N3        -947.9862  -739.4631   880.2519 N3            1 RES     
   26251 C0        -947.1126  -740.3514   880.7956 C0            1 RES     
   26252 C0        -947.3242  -741.7191   880.8054 C0            1 RES     
   26253 H4        -944.5627  -742.7435   882.3395 H4            1 RES     
   26254 C5        -945.9498  -740.9119   874.7620 C5            1 RES     
   26255 C5        -945.8398  -740.1573   876.0868 C5            1 RES     
   26256 C5        -945.2839  -741.0224   877.2307 C5            1 RES     
   26257 C5        -943.8206  -741.4515   877.0173 C5            1 RES     
   26258 C5        -943.3116  -742.2752   878.2101 C5            1 RES     
   26259 C5        -941.8041  -742.5846   878.0780 C5            1 RES     
   26260 C5        -941.1903  -743.3678   879.2689 C5            1 RES     
   26261 C5        -941.5407  -742.6959   880.5977 C5            1 RES     
   26262 C5        -940.7016  -743.0731   881.8444 C5            1 RES     
   26263 C5        -940.8619  -744.5085   882.4786 C5            1 RES     
   26264 C5        -942.2474  -744.5278   883.1819 C5            1 RES     
   26265 C5        -942.8748  -745.6604   884.0031 C5            1 RES     
   26266 C5        -944.2485  -745.0855   884.4823 C5            1 RES     
   26267 C5        -945.1412  -745.9789   885.3418 C5            1 RES     
   26268 C5        -944.5956  -746.1942   886.7481 C5            1 RES     
   26269 C5        -939.3481  -742.3485   881.8773 C5            1 RES     
   26270 C0        -939.0100  -741.7411   883.3003 C0            1 RES     
   26271 C5        -937.4328  -741.5931   883.4308 C5            1 RES     
   26272 C5        -936.7297  -742.2645   884.6619 C5            1 RES     
   26273 C5        -936.6879  -741.3774   885.9397 C5            1 RES     
   26274 C5        -935.6312  -740.2475   885.9228 C5            1 RES     
   26275 C5        -935.8069  -739.2267   887.0642 C5            1 RES     
   26276 C5        -935.4727  -739.7476   888.4708 C5            1 RES     
   26277 C5        -934.0007  -740.1561   888.6731 C5            1 RES     
   26278 C5        -933.0158  -739.0111   888.4166 C5            1 RES     
   26279 C5        -935.3248  -742.8934   884.3143 C5            1 RES     
   26280 C5        -934.3504  -742.0297   883.4665 C5            1 RES     
   26281 C5        -932.9174  -742.5977   883.3588 C5            1 RES     
   26282 C5        -932.8071  -743.9749   882.6747 C5            1 RES     
   26283 C5        -931.3452  -744.4674   882.5398 C5            1 RES     
   26284 C5        -930.4922  -743.6155   881.5741 C5            1 RES     
   26285 C5        -929.0324  -744.0904   881.4424 C5            1 RES     
   26286 C5        -928.8863  -745.4803   880.8232 C5            1 RES     
   26287 H6        -944.9524  -741.2247   874.3930 H6            1 RES     
   26288 H6        -946.4051  -740.2492   873.9962 H6            1 RES     
   26289 H6        -946.5962  -741.8069   874.8849 H6            1 RES     
   26290 H6        -945.2078  -739.2525   875.9509 H6            1 RES     
   26291 H6        -946.8612  -739.8227   876.3721 H6            1 RES     
   26292 H6        -945.3363  -740.4150   878.1621 H6            1 RES     
   26293 H6        -945.9303  -741.9164   877.3656 H6            1 RES     
   26294 H6        -943.2014  -740.5324   876.9135 H6            1 RES     
   26295 H6        -943.7158  -742.0604   876.0961 H6            1 RES     
   26296 H6        -943.4820  -741.6632   879.1213 H6            1 RES     
   26297 H6        -943.8912  -743.2191   878.2956 H6            1 RES     
   26298 H6        -941.6095  -743.1477   877.1400 H6            1 RES     
   26299 H6        -941.2722  -741.6093   878.0052 H6            1 RES     
   26300 H6        -941.5488  -744.4193   879.2911 H6            1 RES     
   26301 H6        -940.0891  -743.3727   879.1189 H6            1 RES     
   26302 H6        -942.6148  -742.8706   880.7953 H6            1 RES     
   26303 H6        -941.4302  -741.5955   880.4655 H6            1 RES     
   26304 H6        -941.1444  -742.4959   882.5723 H6            1 RES     
   26305 H6        -940.7468  -745.2999   881.7085 H6            1 RES     
   26306 H6        -940.0937  -744.6605   883.2687 H6            1 RES     
   26307 H6        -942.1587  -743.7378   883.9512 H6            1 RES     
   26308 H6        -942.9841  -744.2877   882.3968 H6            1 RES     
   26309 H6        -942.2261  -745.9145   884.8691 H6            1 RES     
   26310 H6        -943.0326  -746.5613   883.3747 H6            1 RES     
   26311 H6        -944.0924  -744.1334   885.0428 H6            1 RES     
   26312 H6        -944.8440  -744.8381   883.5761 H6            1 RES     
   26313 H6        -945.3250  -746.9448   884.8291 H6            1 RES     
   26314 H6        -946.1178  -745.4534   885.4536 H6            1 RES     
   26315 H6        -944.4552  -745.2154   887.2585 H6            1 RES     
   26316 H6        -943.6329  -746.7401   886.7192 H6            1 RES     
   26317 H6        -945.3332  -746.7836   887.3338 H6            1 RES     
   26318 H6        -939.3282  -741.4744   881.1909 H6            1 RES     
   26319 H6        -938.6052  -743.0797   881.4919 H6            1 RES     
   26320 H6        -937.0269  -742.1905   882.5925 H6            1 RES     
   26321 H6        -937.0595  -740.5765   883.1962 H6            1 RES     
   26322 H6        -937.3617  -743.1404   884.9328 H6            1 RES     
   26323 H6        -937.7085  -740.9679   886.0906 H6            1 RES     
   26324 H6        -936.4604  -742.0213   886.8167 H6            1 RES     
   26325 H6        -934.6073  -740.6651   885.9632 H6            1 RES     
   26326 H6        -935.7076  -739.6923   884.9691 H6            1 RES     
   26327 H6        -935.1697  -738.3447   886.8499 H6            1 RES     
   26328 H6        -936.8531  -738.8581   887.0726 H6            1 RES     
   26329 H6        -936.1298  -740.6083   888.7156 H6            1 RES     
   26330 H6        -935.7045  -738.9347   889.1934 H6            1 RES     
   26331 H6        -933.7396  -741.0179   888.0251 H6            1 RES     
   26332 H6        -933.8831  -740.4810   889.7290 H6            1 RES     
   26333 H6        -933.2591  -738.1378   889.0588 H6            1 RES     
   26334 H6        -931.9847  -739.3484   888.6501 H6            1 RES     
   26335 H6        -933.0302  -738.6991   887.3519 H6            1 RES     
   26336 H6        -935.5028  -743.8135   883.7168 H6            1 RES     
   26337 H6        -934.8417  -743.2124   885.2635 H6            1 RES     
   26338 H6        -934.2280  -741.0247   883.8917 H6            1 RES     
   26339 H6        -934.7628  -741.8906   882.4444 H6            1 RES     
   26340 H6        -932.3382  -741.8558   882.7739 H6            1 RES     
   26341 H6        -932.4701  -742.6592   884.3756 H6            1 RES     
   26342 H6        -933.2718  -743.9403   881.6654 H6            1 RES     
   26343 H6        -933.3564  -744.7163   883.2897 H6            1 RES     
   26344 H6        -930.8664  -744.4948   883.5432 H6            1 RES     
   26345 H6        -931.3836  -745.5075   882.1485 H6            1 RES     
   26346 H6        -930.4453  -742.5731   881.9468 H6            1 RES     
   26347 H6        -930.9652  -743.6062   880.5679 H6            1 RES     
   26348 H6        -928.4981  -743.3715   880.7825 H6            1 RES     
   26349 H6        -928.5384  -744.0743   882.4377 H6            1 RES     
   26350 H6        -929.3431  -746.2576   881.4680 H6            1 RES     
   26351 H6        -927.8069  -745.7202   880.7131 H6            1 RES     
   26352 H6        -929.3566  -745.5066   879.8174 H6            1 RES     
   26353 C0        -951.0059  -745.3998   879.4125 C0            1 RES     
   26354 C0        -952.4104  -744.7049   879.1947 C0            1 RES     
   26355 C0        -952.2762  -743.3608   879.0999 C0            1 RES     
   26356 S1        -953.7175  -742.5451   878.8277 S1            1 RES     
   26357 C0        -954.6392  -743.9725   878.8086 C0            1 RES     
   26358 C0        -953.7866  -745.0460   879.1039 C0            1 RES     
   26359 C0        -950.9285  -743.0000   879.3400 C0            1 RES     
   26360 C0        -950.2209  -744.0892   879.5369 C0            1 RES     
   26361 C0        -948.8966  -743.7663   879.9888 C0            1 RES     
   26362 C0        -948.7192  -742.4003   880.1127 C0            1 RES     
   26363 S1        -950.1436  -741.4207   879.6064 S1            1 RES     
   26364 H2        -954.1749  -746.0271   879.1971 H2            1 RES     
   26365 H2        -948.2030  -744.4804   880.3195 H2            1 RES     
   26366 N3        -957.9601  -745.5033   877.7738 N3            1 RES     
   26367 C0        -956.6707  -745.3673   878.1933 C0            1 RES     
   26368 C0        -956.0933  -744.0926   878.4362 C0            1 RES     
   26369 C0        -956.9347  -742.9777   878.2319 C0            1 RES     
   26370 N3        -956.5629  -741.6846   878.4186 N3            1 RES     
   26371 S1        -957.9375  -740.8558   878.0317 S1            1 RES     
   26372 N3        -959.0125  -742.0362   877.6210 N3            1 RES     
   26373 C0        -958.2785  -743.1670   877.7945 C0            1 RES     
   26374 C0        -958.7737  -744.4390   877.5662 C0            1 RES     
   26375 H4        -956.0992  -746.2659   878.3006 H4            1 RES     
   26376 C5        -958.1665  -742.4729   871.6646 C5            1 RES     
   26377 C5        -957.7034  -742.0859   873.0690 C5            1 RES     
   26378 C5        -957.1825  -743.2815   873.8844 C5            1 RES     
   26379 C5        -955.8927  -743.8971   873.3114 C5            1 RES     
   26380 C5        -955.4010  -745.0565   874.1913 C5            1 RES     
   26381 C5        -954.0309  -745.5848   873.7122 C5            1 RES     
   26382 C5        -953.4296  -746.7234   874.5784 C5            1 RES     
   26383 C5        -953.4281  -746.3358   876.0581 C5            1 RES     
   26384 C5        -952.5142  -747.1392   877.0173 C5            1 RES     
   26385 C5        -952.8821  -748.6333   877.3648 C5            1 RES     
   26386 C5        -954.1203  -748.5762   878.3019 C5            1 RES     
   26387 C5        -954.8469  -749.7436   878.9802 C5            1 RES     
   26388 C5        -955.9798  -749.0676   879.8209 C5            1 RES     
   26389 C5        -956.9058  -749.9691   880.6355 C5            1 RES     
   26390 C5        -956.2173  -750.6043   881.8372 C5            1 RES     
   26391 C5        -951.0476  -746.6917   876.9366 C5            1 RES     
   26392 C0        -950.3811  -746.5087   878.3616 C0            1 RES     
   26393 C5        -948.8071  -746.6744   878.2144 C5            1 RES     
   26394 C5        -948.0898  -747.7315   879.1247 C5            1 RES     
   26395 C5        -947.6712  -747.1948   880.5240 C5            1 RES     
   26396 C5        -946.4117  -746.2962   880.5350 C5            1 RES     
   26397 C5        -946.1946  -745.5612   881.8724 C5            1 RES     
   26398 C5        -945.7755  -746.4516   883.0527 C5            1 RES     
   26399 C5        -944.4115  -747.1477   882.8813 C5            1 RES     
   26400 C5        -943.2536  -746.1652   882.6790 C5            1 RES     
   26401 C5        -946.9188  -748.4958   878.3934 C5            1 RES     
   26402 C5        -945.9186  -747.6398   877.5683 C5            1 RES     
   26403 C5        -944.6720  -748.4078   877.0743 C5            1 RES     
   26404 C5        -944.9609  -749.5805   876.1161 C5            1 RES     
   26405 C5        -943.6743  -750.2750   875.6058 C5            1 RES     
   26406 C5        -942.8112  -749.3810   874.6883 C5            1 RES     
   26407 C5        -941.5225  -750.0591   874.1852 C5            1 RES     
   26408 C5        -941.7699  -751.2656   873.2797 C5            1 RES     
   26409 H6        -957.3247  -742.8587   871.0552 H6            1 RES     
   26410 H6        -958.5776  -741.5780   871.1516 H6            1 RES     
   26411 H6        -958.9638  -743.2440   871.7244 H6            1 RES     
   26412 H6        -956.9198  -741.2997   873.0013 H6            1 RES     
   26413 H6        -958.5761  -741.6551   873.6070 H6            1 RES     
   26414 H6        -956.9657  -742.9133   874.9123 H6            1 RES     
   26415 H6        -957.9778  -744.0545   873.9561 H6            1 RES     
   26416 H6        -955.1136  -743.1026   873.2800 H6            1 RES     
   26417 H6        -956.0576  -744.2783   872.2830 H6            1 RES     
   26418 H6        -955.3001  -744.6584   875.2234 H6            1 RES     
   26419 H6        -956.1498  -745.8772   874.1925 H6            1 RES     
   26420 H6        -954.1018  -745.9340   872.6597 H6            1 RES     
   26421 H6        -953.3195  -744.7288   873.7387 H6            1 RES     
   26422 H6        -953.9972  -747.6706   874.4545 H6            1 RES     
   26423 H6        -952.3894  -746.8853   874.2220 H6            1 RES     
   26424 H6        -954.4735  -746.3615   876.4184 H6            1 RES     
   26425 H6        -953.1057  -745.2723   876.1340 H6            1 RES     
   26426 H6        -952.7110  -746.6832   877.9186 H6            1 RES     
   26427 H6        -953.0538  -749.2267   876.4422 H6            1 RES     
   26428 H6        -952.0561  -749.1007   877.9450 H6            1 RES     
   26429 H6        -953.7522  -748.0197   879.1843 H6            1 RES     
   26430 H6        -954.8964  -748.0313   877.7384 H6            1 RES     
   26431 H6        -954.1468  -750.3057   879.6355 H6            1 RES     
   26432 H6        -955.2846  -750.4275   878.2238 H6            1 RES     
   26433 H6        -955.5428  -748.3184   880.5229 H6            1 RES     
   26434 H6        -956.6358  -748.5117   879.1155 H6            1 RES     
   26435 H6        -957.3655  -750.7379   879.9820 H6            1 RES     
   26436 H6        -957.7201  -749.3224   881.0372 H6            1 RES     
   26437 H6        -955.7972  -749.8150   882.4995 H6            1 RES     
   26438 H6        -955.4086  -751.2877   881.5136 H6            1 RES     
   26439 H6        -956.9690  -751.1775   882.4210 H6            1 RES     
   26440 H6        -950.9428  -745.6970   876.4518 H6            1 RES     
   26441 H6        -950.5433  -747.4289   876.2753 H6            1 RES     
   26442 H6        -948.6666  -747.1172   877.2101 H6            1 RES     
   26443 H6        -948.2640  -745.7127   878.1244 H6            1 RES     
   26444 H6        -948.8473  -748.5220   879.3278 H6            1 RES     
   26445 H6        -948.5469  -746.6606   880.9481 H6            1 RES     
   26446 H6        -947.4595  -748.0581   881.1913 H6            1 RES     
   26447 H6        -945.5062  -746.8841   880.2923 H6            1 RES     
   26448 H6        -946.5077  -745.5258   879.7471 H6            1 RES     
   26449 H6        -945.4225  -744.7792   881.7239 H6            1 RES     
   26450 H6        -947.1249  -745.0279   882.1562 H6            1 RES     
   26451 H6        -946.5578  -747.2171   883.2385 H6            1 RES     
   26452 H6        -945.7188  -745.8060   883.9563 H6            1 RES     
   26453 H6        -944.4392  -747.8629   882.0336 H6            1 RES     
   26454 H6        -944.2114  -747.7295   883.8063 H6            1 RES     
   26455 H6        -943.2070  -745.4408   883.5201 H6            1 RES     
   26456 H6        -942.2955  -746.7235   882.6368 H6            1 RES     
   26457 H6        -943.3580  -745.6117   881.7231 H6            1 RES     
   26458 H6        -947.3756  -749.2019   877.6667 H6            1 RES     
   26459 H6        -946.3803  -749.1106   879.1471 H6            1 RES     
   26460 H6        -945.5228  -746.8020   878.1576 H6            1 RES     
   26461 H6        -946.4381  -747.1919   876.6945 H6            1 RES     
   26462 H6        -944.0406  -747.6615   876.5526 H6            1 RES     
   26463 H6        -944.1031  -748.7865   877.9522 H6            1 RES     
   26464 H6        -945.5513  -749.2264   875.2432 H6            1 RES     
   26465 H6        -945.5589  -750.3388   876.6610 H6            1 RES     
   26466 H6        -943.0696  -750.6233   876.4716 H6            1 RES     
   26467 H6        -943.9915  -751.1692   875.0257 H6            1 RES     
   26468 H6        -942.4881  -748.4818   875.2493 H6            1 RES     
   26469 H6        -943.4146  -749.0503   873.8149 H6            1 RES     
   26470 H6        -940.9503  -749.3090   873.5954 H6            1 RES     
   26471 H6        -940.8949  -750.3667   875.0492 H6            1 RES     
   26472 H6        -942.2818  -752.0814   873.8282 H6            1 RES     
   26473 H6        -940.7950  -751.6577   872.9180 H6            1 RES     
   26474 H6        -942.3782  -750.9694   872.3989 H6            1 RES     
   26475 C0        -963.3212  -746.9802   876.1862 C0            1 RES     
   26476 C0        -964.5612  -746.0187   876.3880 C0            1 RES     
   26477 C0        -964.1583  -744.7354   876.5448 C0            1 RES     
   26478 S1        -965.4161  -743.6390   876.7261 S1            1 RES     
   26479 C0        -966.6139  -744.8369   876.5941 C0            1 RES     
   26480 C0        -965.9764  -746.0820   876.4955 C0            1 RES     
   26481 C0        -962.7443  -744.6837   876.5901 C0            1 RES     
   26482 C0        -962.2647  -745.8951   876.4217 C0            1 RES     
   26483 C0        -960.8502  -745.9258   876.6671 C0            1 RES     
   26484 C0        -960.3687  -744.6811   877.0301 C0            1 RES     
   26485 S1        -961.6096  -743.3754   877.0167 S1            1 RES     
   26486 H2        -966.5473  -746.9735   876.4598 H2            1 RES     
   26487 H2        -960.2841  -746.8080   876.7063 H2            1 RES     
   26488 N3        -970.3008  -745.4721   875.9263 N3            1 RES     
   26489 C0        -968.9647  -745.6677   876.1093 C0            1 RES     
   26490 C0        -968.0989  -744.6085   876.4912 C0            1 RES     
   26491 C0        -968.7032  -743.3474   876.6834 C0            1 RES     
   26492 N3        -968.0403  -742.2213   877.0545 N3            1 RES     
   26493 S1        -969.2478  -741.0969   877.1155 S1            1 RES     
   26494 N3        -970.5988  -741.9389   876.6871 N3            1 RES     
   26495 C0        -970.1060  -743.1891   876.4827 C0            1 RES     
   26496 C0        -970.8897  -744.2635   876.0996 C0            1 RES     
   26497 H4        -968.5890  -746.6517   875.9197 H4            1 RES     
   26498 C5        -970.7549  -741.0894   870.7173 C5            1 RES     
   26499 C5        -970.0175  -741.1342   872.0555 C5            1 RES     
   26500 C5        -969.6496  -742.5616   872.4951 C5            1 RES     
   26501 C5        -968.6202  -743.2394   871.5722 C5            1 RES     
   26502 C5        -968.2632  -744.6424   872.0866 C5            1 RES     
   26503 C5        -967.1238  -745.2732   871.2562 C5            1 RES     
   26504 C5        -966.6585  -746.6722   871.7407 C5            1 RES     
   26505 C5        -966.3558  -746.6536   873.2400 C5            1 RES     
   26506 C5        -965.5032  -747.8091   873.8220 C5            1 RES     
   26507 C5        -966.1265  -749.2548   873.9221 C5            1 RES     
   26508 C5        -967.1716  -749.2060   875.0711 C5            1 RES     
   26509 C5        -968.0225  -750.3553   875.6241 C5            1 RES     
   26510 C5        -968.8478  -749.7108   876.7862 C5            1 RES     
   26511 C5        -969.8144  -750.6035   877.5625 C5            1 RES     
   26512 C5        -969.1078  -751.6164   878.4548 C5            1 RES     
   26513 C5        -964.0032  -747.6192   873.5542 C5            1 RES     
   26514 C0        -963.1100  -747.8995   874.8316 C0            1 RES     
   26515 C5        -961.6472  -748.2985   874.3545 C5            1 RES     
   26516 C5        -961.0460  -749.6504   874.8758 C5            1 RES     
   26517 C5        -960.3204  -749.5433   876.2481 C5            1 RES     
   26518 C5        -958.9105  -748.9079   876.1999 C5            1 RES     
   26519 C5        -958.3463  -748.5613   877.5917 C5            1 RES     
   26520 C5        -957.9575  -749.7658   878.4633 C5            1 RES     
   26521 C5        -956.8144  -750.6291   877.8953 C5            1 RES     
   26522 C5        -955.5161  -749.8451   877.6789 C5            1 RES     
   26523 C5        -960.1866  -750.4120   873.7934 C5            1 RES     
   26524 C5        -959.1597  -749.5733   872.9835 C5            1 RES     
   26525 C5        -958.1929  -750.4080   872.1137 C5            1 RES     
   26526 C5        -958.8640  -751.2502   871.0105 C5            1 RES     
   26527 C5        -957.8454  -752.0178   870.1323 C5            1 RES     
   26528 C5        -956.9564  -751.0969   869.2678 C5            1 RES     
   26529 C5        -955.9311  -751.8509   868.3994 C5            1 RES     
   26530 C5        -956.5616  -752.7453   867.3321 C5            1 RES     
   26531 H6        -970.1145  -741.4606   869.8922 H6            1 RES     
   26532 H6        -971.0364  -740.0405   870.4858 H6            1 RES     
   26533 H6        -971.6808  -741.7007   870.7707 H6            1 RES     
   26534 H6        -969.1029  -740.5043   872.0002 H6            1 RES     
   26535 H6        -970.6887  -740.6976   872.8272 H6            1 RES     
   26536 H6        -969.2097  -742.4919   873.5153 H6            1 RES     
   26537 H6        -970.5722  -743.1779   872.5592 H6            1 RES     
   26538 H6        -967.7027  -742.6093   871.5543 H6            1 RES     
   26539 H6        -969.0129  -743.3305   870.5388 H6            1 RES     
   26540 H6        -967.9283  -744.5248   873.1392 H6            1 RES     
   26541 H6        -969.1615  -745.2957   872.0644 H6            1 RES     
   26542 H6        -967.4224  -745.3444   870.1883 H6            1 RES     
   26543 H6        -966.2500  -744.5862   871.3194 H6            1 RES     
   26544 H6        -967.4274  -747.4483   871.5379 H6            1 RES     
   26545 H6        -965.7413  -746.9243   871.1660 H6            1 RES     
   26546 H6        -967.3175  -746.5807   873.7812 H6            1 RES     
   26547 H6        -965.8060  -745.7119   873.4674 H6            1 RES     
   26548 H6        -965.4627  -747.5530   874.8178 H6            1 RES     
   26549 H6        -966.5554  -749.5725   872.9485 H6            1 RES     
   26550 H6        -965.3430  -749.9839   874.2255 H6            1 RES     
   26551 H6        -966.5668  -748.9483   875.9608 H6            1 RES     
   26552 H6        -967.8878  -748.4157   874.7898 H6            1 RES     
   26553 H6        -967.3698  -751.1706   876.0045 H6            1 RES     
   26554 H6        -968.7030  -750.7524   874.8427 H6            1 RES     
   26555 H6        -968.1621  -749.2382   877.5288 H6            1 RES     
   26556 H6        -969.4667  -748.8971   876.3480 H6            1 RES     
   26557 H6        -970.5191  -751.1023   876.8667 H6            1 RES     
   26558 H6        -970.4032  -749.9385   878.2360 H6            1 RES     
   26559 H6        -968.4356  -751.0931   879.1707 H6            1 RES     
   26560 H6        -968.5207  -752.3341   877.8499 H6            1 RES     
   26561 H6        -969.8699  -752.1711   879.0429 H6            1 RES     
   26562 H6        -963.7611  -746.5719   873.2710 H6            1 RES     
   26563 H6        -963.7715  -748.2548   872.6724 H6            1 RES     
   26564 H6        -961.7545  -748.5076   873.2732 H6            1 RES     
   26565 H6        -960.9306  -747.4534   874.3597 H6            1 RES     
   26566 H6        -961.9164  -750.3213   875.0552 H6            1 RES     
   26567 H6        -960.9893  -748.9803   876.9320 H6            1 RES     
   26568 H6        -960.2020  -750.5638   876.6724 H6            1 RES     
   26569 H6        -958.1976  -749.5705   875.6735 H6            1 RES     
   26570 H6        -958.9550  -747.9678   875.6186 H6            1 RES     
   26571 H6        -957.4555  -747.9141   877.4602 H6            1 RES     
   26572 H6        -959.0887  -747.9563   878.1513 H6            1 RES     
   26573 H6        -958.8491  -750.4044   878.6361 H6            1 RES     
   26574 H6        -957.6313  -749.3736   879.4514 H6            1 RES     
   26575 H6        -957.1192  -751.1062   876.9412 H6            1 RES     
   26576 H6        -956.6088  -751.4398   878.6266 H6            1 RES     
   26577 H6        -955.1921  -749.3608   878.6250 H6            1 RES     
   26578 H6        -954.7165  -750.5362   877.3409 H6            1 RES     
   26579 H6        -955.6399  -749.0708   876.8939 H6            1 RES     
   26580 H6        -960.8859  -750.8340   873.0396 H6            1 RES     
   26581 H6        -959.6866  -751.2728   874.2885 H6            1 RES     
   26582 H6        -958.5114  -748.9821   873.6438 H6            1 RES     
   26583 H6        -959.6946  -748.8467   872.3354 H6            1 RES     
   26584 H6        -957.5008  -749.6815   871.6436 H6            1 RES     
   26585 H6        -957.5948  -751.0780   872.7703 H6            1 RES     
   26586 H6        -959.4874  -750.6011   870.3579 H6            1 RES     
   26587 H6        -959.5231  -751.9995   871.4941 H6            1 RES     
   26588 H6        -957.2080  -752.6623   870.7767 H6            1 RES     
   26589 H6        -958.4284  -752.6789   869.4543 H6            1 RES     
   26590 H6        -956.3694  -750.4276   869.9274 H6            1 RES     
   26591 H6        -957.5974  -750.4677   868.6124 H6            1 RES     
   26592 H6        -955.3054  -751.0943   867.8761 H6            1 RES     
   26593 H6        -955.2632  -752.4599   869.0459 H6            1 RES     
   26594 H6        -957.1493  -753.5654   867.7908 H6            1 RES     
   26595 H6        -955.7574  -753.2047   866.7179 H6            1 RES     
   26596 H6        -957.2158  -752.1466   866.6634 H6            1 RES     
   26597 C0        -976.0280  -745.5674   875.1301 C0            1 RES     
   26598 C0        -976.9901  -744.4795   875.7576 C0            1 RES     
   26599 C0        -976.3037  -743.3611   876.0919 C0            1 RES     
   26600 S1        -977.2572  -742.1364   876.7305 S1            1 RES     
   26601 C0        -978.6894  -743.0399   876.5898 C0            1 RES     
   26602 C0        -978.3544  -744.3177   876.1194 C0            1 RES     
   26603 C0        -974.9205  -743.5701   875.8747 C0            1 RES     
   26604 C0        -974.7411  -744.7715   875.3744 C0            1 RES     
   26605 C0        -973.3454  -745.1069   875.3323 C0            1 RES     
   26606 C0        -972.5608  -744.0882   875.8417 C0            1 RES     
   26607 S1        -973.4821  -742.6202   876.3328 S1            1 RES     
   26608 H2        -979.1015  -745.0611   876.0132 H2            1 RES     
   26609 H2        -972.9816  -746.0582   875.0817 H2            1 RES     
   26610 N3        -982.4841  -742.8426   876.5268 N3            1 RES     
   26611 C0        -981.2086  -743.3068   876.4063 C0            1 RES     
   26612 C0        -980.0898  -742.5372   876.8224 C0            1 RES     
   26613 C0        -980.3755  -741.2721   877.3796 C0            1 RES     
   26614 N3        -979.4399  -740.4004   877.8379 N3            1 RES     
   26615 S1        -980.3566  -739.1291   878.3570 S1            1 RES     
   26616 N3        -981.9044  -739.5952   878.0336 N3            1 RES     
   26617 C0        -981.7259  -740.8275   877.4883 C0            1 RES     
   26618 C0        -982.7689  -741.6258   877.0523 C0            1 RES     
   26619 H4        -981.0841  -744.2678   875.9520 H4            1 RES     
   26620 C5        -982.7554  -737.3381   872.5050 C5            1 RES     
   26621 C5        -981.8553  -737.8280   873.6392 C5            1 RES     
   26622 C5        -981.7400  -739.3606   873.7001 C5            1 RES     
   26623 C5        -981.0272  -739.9693   872.4785 C5            1 RES     
   26624 C5        -980.9063  -741.4944   872.6184 C5            1 RES     
   26625 C5        -980.0634  -742.0994   871.4741 C5            1 RES     
   26626 C5        -979.8415  -743.6327   871.5652 C5            1 RES     
   26627 C5        -979.3237  -744.0241   872.9503 C5            1 RES     
   26628 C5        -978.6615  -745.4157   873.1103 C5            1 RES     
   26629 C5        -979.5575  -746.7116   873.0318 C5            1 RES     
   26630 C5        -980.3865  -746.7549   874.3454 C5            1 RES     
   26631 C5        -981.3722  -747.8354   874.8057 C5            1 RES     
   26632 C5        -981.8598  -747.3511   876.2109 C5            1 RES     
   26633 C5        -982.8693  -748.2192   876.9600 C5            1 RES     
   26634 C5        -982.2716  -749.5227   877.4749 C5            1 RES     
   26635 C5        -977.2119  -745.4333   872.6040 C5            1 RES     
   26636 C0        -976.2206  -746.1609   873.6020 C0            1 RES     
   26637 C5        -974.9637  -746.6850   872.7821 C5            1 RES     
   26638 C5        -974.5951  -748.2057   872.8920 C5            1 RES     
   26639 C5        -973.6688  -748.5565   874.0921 C5            1 RES     
   26640 C5        -972.1786  -748.1848   873.9046 C5            1 RES     
   26641 C5        -971.3541  -748.2831   875.2032 C5            1 RES     
   26642 C5        -971.1074  -749.7091   875.7202 C5            1 RES     
   26643 C5        -970.2719  -750.5992   874.7798 C5            1 RES     
   26644 C5        -968.8826  -750.0260   874.4825 C5            1 RES     
   26645 C5        -974.0878  -748.8268   871.5329 C5            1 RES     
   26646 C5        -973.0365  -748.0128   870.7289 C5            1 RES     
   26647 C5        -972.4098  -748.7731   869.5385 C5            1 RES     
   26648 C5        -973.4008  -749.1982   868.4367 C5            1 RES     
   26649 C5        -972.7109  -749.9014   867.2419 C5            1 RES     
   26650 C5        -971.7833  -748.9718   866.4288 C5            1 RES     
   26651 C5        -971.0826  -749.6654   865.2448 C5            1 RES     
   26652 C5        -972.0402  -750.1560   864.1590 C5            1 RES     
   26653 H6        -982.3381  -737.6089   871.5143 H6            1 RES     
   26654 H6        -982.8373  -736.2316   872.5503 H6            1 RES     
   26655 H6        -983.7722  -737.7728   872.6095 H6            1 RES     
   26656 H6        -980.8455  -737.3731   873.5388 H6            1 RES     
   26657 H6        -982.2961  -737.4766   874.5977 H6            1 RES     
   26658 H6        -981.1497  -739.6133   874.6093 H6            1 RES     
   26659 H6        -982.7532  -739.8031   873.8132 H6            1 RES     
   26660 H6        -980.0092  -739.5236   872.4135 H6            1 RES     
   26661 H6        -981.5785  -739.7421   871.5432 H6            1 RES     
   26662 H6        -980.4022  -741.6908   873.5886 H6            1 RES     
   26663 H6        -981.9166  -741.9560   872.6364 H6            1 RES     
   26664 H6        -980.5247  -741.8615   870.4916 H6            1 RES     
   26665 H6        -979.0635  -741.6110   871.5069 H6            1 RES     
   26666 H6        -980.7798  -744.1914   871.3601 H6            1 RES     
   26667 H6        -979.0945  -743.8977   870.7861 H6            1 RES     
   26668 H6        -980.1570  -743.9146   873.6693 H6            1 RES     
   26669 H6        -978.5580  -743.2746   873.2548 H6            1 RES     
   26670 H6        -978.4205  -745.4147   874.1108 H6            1 RES     
   26671 H6        -980.1833  -746.7088   872.1147 H6            1 RES     
   26672 H6        -978.9118  -747.6175   873.0243 H6            1 RES     
   26673 H6        -979.6161  -746.8260   875.1360 H6            1 RES     
   26674 H6        -980.9508  -745.8076   874.3736 H6            1 RES     
   26675 H6        -980.8599  -748.8191   874.8796 H6            1 RES     
   26676 H6        -982.2296  -747.9101   874.1052 H6            1 RES     
   26677 H6        -980.9869  -747.1961   876.8885 H6            1 RES     
   26678 H6        -982.3483  -746.3612   876.0746 H6            1 RES     
   26679 H6        -983.7592  -748.4071   876.3257 H6            1 RES     
   26680 H6        -983.1963  -747.6407   877.8550 H6            1 RES     
   26681 H6        -981.4049  -749.3105   878.1398 H6            1 RES     
   26682 H6        -981.9473  -750.1676   876.6355 H6            1 RES     
   26683 H6        -983.0392  -750.0590   878.0729 H6            1 RES     
   26684 H6        -976.7961  -744.4078   872.4989 H6            1 RES     
   26685 H6        -977.2542  -745.8717   871.5836 H6            1 RES     
   26686 H6        -975.2718  -746.6091   871.7220 H6            1 RES     
   26687 H6        -974.0903  -746.0042   872.8215 H6            1 RES     
   26688 H6        -975.5525  -748.7370   873.0947 H6            1 RES     
   26689 H6        -974.0934  -748.0639   874.9917 H6            1 RES     
   26690 H6        -973.7098  -749.6530   874.2690 H6            1 RES     
   26691 H6        -971.7096  -748.8177   873.1275 H6            1 RES     
   26692 H6        -972.1066  -747.1407   873.5464 H6            1 RES     
   26693 H6        -970.3750  -747.7894   875.0377 H6            1 RES     
   26694 H6        -971.8592  -747.7079   876.0060 H6            1 RES     
   26695 H6        -972.0793  -750.2041   875.9272 H6            1 RES     
   26696 H6        -970.5626  -749.6261   876.6861 H6            1 RES     
   26697 H6        -970.8091  -750.7750   873.8252 H6            1 RES     
   26698 H6        -970.1386  -751.5834   875.2775 H6            1 RES     
   26699 H6        -968.3265  -749.8448   875.4272 H6            1 RES     
   26700 H6        -968.3080  -750.7460   873.8638 H6            1 RES     
   26701 H6        -968.9527  -749.0780   873.9101 H6            1 RES     
   26702 H6        -974.9646  -748.9285   870.8575 H6            1 RES     
   26703 H6        -973.7158  -749.8544   871.7371 H6            1 RES     
   26704 H6        -972.1866  -747.7184   871.3589 H6            1 RES     
   26705 H6        -973.4936  -747.0711   870.3573 H6            1 RES     
   26706 H6        -971.6556  -748.0885   869.1022 H6            1 RES     
   26707 H6        -971.8784  -749.6739   869.9177 H6            1 RES     
   26708 H6        -973.9604  -748.3138   868.0618 H6            1 RES     
   26709 H6        -974.1259  -749.9135   868.8750 H6            1 RES     
   26710 H6        -972.1379  -750.7818   867.6071 H6            1 RES     
   26711 H6        -973.5153  -750.2698   866.5683 H6            1 RES     
   26712 H6        -970.9759  -748.5917   867.0856 H6            1 RES     
   26713 H6        -972.3647  -748.1027   866.0505 H6            1 RES     
   26714 H6        -970.3940  -748.9278   864.7763 H6            1 RES     
   26715 H6        -970.4723  -750.5179   865.6134 H6            1 RES     
   26716 H6        -972.7153  -750.9457   864.5453 H6            1 RES     
   26717 H6        -971.4525  -750.5899   863.3216 H6            1 RES     
   26718 H6        -972.6428  -749.3106   863.7645 H6            1 RES     
   26719 C0        -988.1526  -741.7416   876.8421 C0            1 RES     
   26720 C0        -988.7565  -740.6827   877.8505 C0            1 RES     
   26721 C0        -987.8053  -739.8138   878.2674 C0            1 RES     
   26722 S1        -988.3700  -738.6284   879.3127 S1            1 RES     
   26723 C0        -989.9669  -739.2073   879.2686 C0            1 RES     
   26724 C0        -989.9860  -740.3752   878.4926 C0            1 RES     
   26725 C0        -986.5463  -740.2041   877.7509 C0            1 RES     
   26726 C0        -986.7037  -741.2645   876.9916 C0            1 RES     
   26727 C0        -985.4339  -741.8193   876.6152 C0            1 RES     
   26728 C0        -984.3833  -741.1044   877.1610 C0            1 RES     
   26729 S1        -984.8867  -739.6571   878.1080 S1            1 RES     
   26730 H2        -990.8819  -740.9294   878.3827 H2            1 RES     
   26731 H2        -985.3228  -742.7325   876.1111 H2            1 RES     
   26732 N3        -993.5985  -738.3394   879.9765 N3            1 RES     
   26733 C0        -992.4838  -738.9777   879.5215 C0            1 RES     
   26734 C0        -991.1774  -738.5371   879.8629 C0            1 RES     
   26735 C0        -991.1007  -737.4106   880.7102 C0            1 RES     
   26736 N3        -989.9432  -736.8505   881.1481 N3            1 RES     
   26737 S1        -990.4801  -735.5986   882.0811 S1            1 RES     
   26738 N3        -992.1222  -735.6961   881.9728 N3            1 RES     
   26739 C0        -992.2937  -736.7753   881.1642 C0            1 RES     
   26740 C0        -993.5358  -737.2518   880.7832 C0            1 RES     
   26741 H4        -992.6360  -739.8097   878.8658 H4            1 RES     
   26742 C5        -993.2782  -732.0771   877.2875 C5            1 RES     
   26743 C5        -992.3461  -732.9723   878.1040 C5            1 RES     
   26744 C5        -992.5533  -734.4713   877.8285 C5            1 RES     
   26745 C5        -992.1755  -734.8875   876.3950 C5            1 RES     
   26746 C5        -992.3640  -736.3991   876.1956 C5            1 RES     
   26747 C5        -991.8484  -736.8529   874.8122 C5            1 RES     
   26748 C5        -991.9483  -738.3784   874.5450 C5            1 RES     
   26749 C5        -991.3273  -739.1721   875.6958 C5            1 RES     
   26750 C5        -990.9616  -740.6557   875.4391 C5            1 RES     
   26751 C5        -992.1154  -741.7183   875.2719 C5            1 RES     
   26752 C5        -992.7312  -741.9266   876.6833 C5            1 RES     
   26753 C5        -993.8459  -742.8957   877.0944 C5            1 RES     
   26754 C5        -994.0057  -742.6814   878.6357 C5            1 RES     
   26755 C5        -995.0554  -743.5120   879.3720 C5            1 RES     
   26756 C5        -994.6808  -744.9844   879.4863 C5            1 RES     
   26757 C5        -989.6403  -740.8060   874.6713 C5            1 RES     
   26758 C0        -988.6911  -741.9119   875.2911 C0            1 RES     
   26759 C5        -987.7105  -742.4379   874.1560 C5            1 RES     
   26760 C5        -987.6633  -743.9817   873.8813 C5            1 RES     
   26761 C5        -986.6665  -744.7641   874.7844 C5            1 RES     
   26762 C5        -985.1758  -744.6253   874.3941 C5            1 RES     
   26763 C5        -984.2088  -745.1721   875.4626 C5            1 RES     
   26764 C5        -984.1989  -746.7006   875.6214 C5            1 RES     
   26765 C5        -983.7211  -747.4740   874.3771 C5            1 RES     
   26766 C5        -982.3010  -747.0989   873.9417 C5            1 RES     
   26767 C5        -987.5069  -744.3410   872.3527 C5            1 RES     
   26768 C5        -986.4365  -743.5564   871.5448 C5            1 RES     
   26769 C5        -986.1696  -744.1098   870.1269 C5            1 RES     
   26770 C5        -987.3801  -744.0806   869.1727 C5            1 RES     
   26771 C5        -987.0407  -744.5895   867.7501 C5            1 RES     
   26772 C5        -986.0663  -743.6706   866.9806 C5            1 RES     
   26773 C5        -985.7128  -744.1748   865.5684 C5            1 RES     
   26774 C5        -986.9028  -744.2179   864.6098 C5            1 RES     
   26775 H6        -993.0794  -732.1737   876.2013 H6            1 RES     
   26776 H6        -993.1141  -731.0164   877.5719 H6            1 RES     
   26777 H6        -994.3375  -732.3392   877.4946 H6            1 RES     
   26778 H6        -991.2887  -732.6906   877.9065 H6            1 RES     
   26779 H6        -992.5552  -732.7870   879.1804 H6            1 RES     
   26780 H6        -991.9030  -735.0321   878.5367 H6            1 RES     
   26781 H6        -993.6096  -734.7435   878.0414 H6            1 RES     
   26782 H6        -991.1068  -734.6245   876.2279 H6            1 RES     
   26783 H6        -992.7974  -734.3517   875.6491 H6            1 RES     
   26784 H6        -991.7759  -736.9055   876.9905 H6            1 RES     
   26785 H6        -993.4357  -736.6675   876.3129 H6            1 RES     
   26786 H6        -992.3881  -736.3115   874.0058 H6            1 RES     
   26787 H6        -990.7736  -736.5692   874.7512 H6            1 RES     
   26788 H6        -993.0041  -738.6993   874.4144 H6            1 RES     
   26789 H6        -991.3986  -738.5773   873.5997 H6            1 RES     
   26790 H6        -992.0024  -739.0923   876.5683 H6            1 RES     
   26791 H6        -990.3827  -738.6624   875.9938 H6            1 RES     
   26792 H6        -990.5809  -740.9345   876.3536 H6            1 RES     
   26793 H6        -992.8546  -741.3882   874.5121 H6            1 RES     
   26794 H6        -991.6866  -742.6951   874.9564 H6            1 RES     
   26795 H6        -991.8856  -742.3172   877.2800 H6            1 RES     
   26796 H6        -993.0694  -740.9293   877.0115 H6            1 RES     
   26797 H6        -993.5505  -743.9428   876.8669 H6            1 RES     
   26798 H6        -994.7933  -742.6505   876.5713 H6            1 RES     
   26799 H6        -993.0296  -742.8471   879.1503 H6            1 RES     
   26800 H6        -994.2860  -741.6177   878.8000 H6            1 RES     
   26801 H6        -996.0486  -743.3851   878.8955 H6            1 RES     
   26802 H6        -995.1154  -743.1146   880.4116 H6            1 RES     
   26803 H6        -993.7003  -745.0914   880.0015 H6            1 RES     
   26804 H6        -994.6295  -745.4579   878.4869 H6            1 RES     
   26805 H6        -995.4483  -745.5045   880.0986 H6            1 RES     
   26806 H6        -989.0352  -739.8740   874.6993 H6            1 RES     
   26807 H6        -989.9255  -740.9751   873.6105 H6            1 RES     
   26808 H6        -988.1483  -742.0597   873.2128 H6            1 RES     
   26809 H6        -986.7158  -741.9498   874.1649 H6            1 RES     
   26810 H6        -988.6714  -744.3697   874.1515 H6            1 RES     
   26811 H6        -986.8383  -744.4327   875.8298 H6            1 RES     
   26812 H6        -986.9143  -745.8466   874.7390 H6            1 RES     
   26813 H6        -984.9728  -745.1276   873.4292 H6            1 RES     
   26814 H6        -984.9359  -743.5553   874.2489 H6            1 RES     
   26815 H6        -983.1822  -744.8325   875.2163 H6            1 RES     
   26816 H6        -984.4550  -744.7248   876.4474 H6            1 RES     
   26817 H6        -985.2126  -747.0525   875.9059 H6            1 RES     
   26818 H6        -983.5124  -746.9462   876.4611 H6            1 RES     
   26819 H6        -984.4185  -747.3211   873.5279 H6            1 RES     
   26820 H6        -983.7293  -748.5559   874.6290 H6            1 RES     
   26821 H6        -981.5857  -747.2476   874.7788 H6            1 RES     
   26822 H6        -981.9914  -747.7406   873.0909 H6            1 RES     
   26823 H6        -982.2506  -746.0450   873.5986 H6            1 RES     
   26824 H6        -988.4750  -744.1242   871.8519 H6            1 RES     
   26825 H6        -987.3371  -745.4365   872.2683 H6            1 RES     
   26826 H6        -985.4598  -743.5735   872.0465 H6            1 RES     
   26827 H6        -986.7315  -742.4883   871.4674 H6            1 RES     
   26828 H6        -985.3594  -743.4841   869.7026 H6            1 RES     
   26829 H6        -985.7929  -745.1536   870.2057 H6            1 RES     
   26830 H6        -987.7869  -743.0487   869.1002 H6            1 RES     
   26831 H6        -988.1685  -744.7413   869.5871 H6            1 RES     
   26832 H6        -986.6216  -745.6178   867.8116 H6            1 RES     
   26833 H6        -987.9957  -744.6407   867.1827 H6            1 RES     
   26834 H6        -985.1085  -743.6049   867.5337 H6            1 RES     
   26835 H6        -986.4979  -742.6486   866.9060 H6            1 RES     
   26836 H6        -984.9594  -743.4793   865.1365 H6            1 RES     
   26837 H6        -985.2512  -745.1837   865.6316 H6            1 RES     
   26838 H6        -987.6663  -744.9460   864.9495 H6            1 RES     
   26839 H6        -986.5517  -744.5365   863.6047 H6            1 RES     
   26840 H6        -987.3622  -743.2109   864.5187 H6            1 RES     
   26841 C0        -998.7905  -736.3697   881.5909 C0            1 RES     
   26842 C0        -998.9985  -735.4918   882.8905 C0            1 RES     
   26843 C0        -997.8327  -734.9272   883.2851 C0            1 RES     
   26844 S1        -997.9703  -733.9440   884.6383 S1            1 RES     
   26845 C0        -999.6426  -734.2070   884.7845 C0            1 RES     
   26846 C0       -1000.0252  -735.1352   883.8055 C0            1 RES     
   26847 C0        -996.7766  -735.3978   882.4681 C0            1 RES     
   26848 C0        -997.2674  -736.2031   881.5536 C0            1 RES     
   26849 C0        -996.2152  -736.8662   880.8356 C0            1 RES     
   26850 C0        -994.9673  -736.4967   881.3035 C0            1 RES     
   26851 S1        -995.0043  -735.2507   882.6039 S1            1 RES     
   26852 H2       -1001.0250  -735.4818   883.7591 H2            1 RES     
   26853 H2        -996.3776  -737.6384   880.1445 H2            1 RES     
   26854 N3       -1002.8594  -732.9100   886.3376 N3            1 RES     
   26855 C0       -1001.9866  -733.6070   885.5570 C0            1 RES     
   26856 C0       -1000.5805  -733.4959   885.7238 C0            1 RES     
   26857 C0       -1000.1406  -732.6343   886.7518 C0            1 RES     
   26858 N3        -998.8384  -732.4058   887.0641 N3            1 RES     
   26859 S1        -998.9516  -731.3373   888.3177 S1            1 RES     
   26860 N3       -1000.5741  -731.1172   888.5090 N3            1 RES     
   26861 C0       -1001.0897  -731.9262   887.5459 C0            1 RES     
   26862 C0       -1002.4474  -732.0735   887.3215 C0            1 RES     
   26863 H4       -1002.4083  -734.2196   884.7874 H4            1 RES     
   26864 C5       -1001.6090  -726.3440   884.9691 C5            1 RES     
   26865 C5       -1000.7797  -727.5564   885.3920 C5            1 RES     
   26866 C5       -1001.3408  -728.8870   884.8621 C5            1 RES     
   26867 C5       -1001.2766  -729.0102   883.3286 C5            1 RES     
   26868 C5       -1001.8111  -730.3742   882.8657 C5            1 RES     
   26869 C5       -1001.6145  -730.5694   881.3462 C5            1 RES     
   26870 C5       -1002.0765  -731.9460   880.7984 C5            1 RES     
   26871 C5       -1001.4765  -733.0864   881.6226 C5            1 RES     
   26872 C5       -1001.4782  -734.5070   881.0040 C5            1 RES     
   26873 C5       -1002.8442  -735.2806   880.8485 C5            1 RES     
   26874 C5       -1003.2749  -735.7070   882.2793 C5            1 RES     
   26875 C5       -1004.4978  -736.5355   882.6907 C5            1 RES     
   26876 C5       -1004.3786  -736.6688   884.2448 C5            1 RES     
   26877 C5       -1005.4611  -737.4535   884.9840 C5            1 RES     
   26878 C5       -1005.3971  -738.9532   884.7222 C5            1 RES     
   26879 C5       -1000.3478  -734.6997   879.9827 C5            1 RES     
   26880 C0        -999.5761  -736.0698   880.1705 C0            1 RES     
   26881 C5        -998.9092  -736.4744   878.7855 C5            1 RES     
   26882 C5        -999.2340  -737.8924   878.1985 C5            1 RES     
   26883 C5        -998.3052  -739.0290   878.7150 C5            1 RES     
   26884 C5        -996.8937  -739.0648   878.0825 C5            1 RES     
   26885 C5        -995.9190  -740.0104   878.8115 C5            1 RES     
   26886 C5        -996.2126  -741.5102   878.6510 C5            1 RES     
   26887 C5        -996.1003  -742.0372   877.2072 C5            1 RES     
   26888 C5        -994.7131  -741.8241   876.5931 C5            1 RES     
   26889 C5        -999.3855  -737.9000   876.6278 C5            1 RES     
   26890 C5        -998.3036  -737.1459   875.8064 C5            1 RES     
   26891 C5        -998.3735  -737.3845   874.2813 C5            1 RES     
   26892 C5        -999.6772  -736.9180   873.6034 C5            1 RES     
   26893 C5        -999.6683  -737.1257   872.0689 C5            1 RES     
   26894 C5        -998.6446  -736.2355   871.3302 C5            1 RES     
   26895 C5        -998.6196  -736.4437   869.8038 C5            1 RES     
   26896 C5        -999.9195  -736.0488   869.1031 C5            1 RES     
   26897 H6       -1001.5982  -726.2130   883.8684 H6            1 RES     
   26898 H6       -1001.1819  -725.4268   885.4266 H6            1 RES     
   26899 H6       -1002.6575  -726.4581   885.3178 H6            1 RES     
   26900 H6        -999.7275  -727.4256   885.0567 H6            1 RES     
   26901 H6       -1000.7830  -727.5985   886.5032 H6            1 RES     
   26902 H6       -1000.7281  -729.7049   885.3031 H6            1 RES     
   26903 H6       -1002.3876  -729.0127   885.2138 H6            1 RES     
   26904 H6       -1000.2131  -728.9064   883.0167 H6            1 RES     
   26905 H6       -1001.8729  -728.2122   882.8409 H6            1 RES     
   26906 H6       -1001.2341  -731.1498   883.4129 H6            1 RES     
   26907 H6       -1002.8860  -730.4709   883.1293 H6            1 RES     
   26908 H6       -1002.1391  -729.7660   880.7858 H6            1 RES     
   26909 H6       -1000.5250  -730.4720   881.1392 H6            1 RES     
   26910 H6       -1003.1839  -732.0367   880.8103 H6            1 RES     
   26911 H6       -1001.7278  -732.0078   879.7449 H6            1 RES     
   26912 H6       -1001.9824  -733.0993   882.6060 H6            1 RES     
   26913 H6       -1000.4114  -732.8357   881.8311 H6            1 RES     
   26914 H6       -1001.0351  -735.0574   881.7521 H6            1 RES     
   26915 H6       -1003.5997  -734.6553   880.3281 H6            1 RES     
   26916 H6       -1002.6855  -736.2140   880.2646 H6            1 RES     
   26917 H6       -1002.4537  -736.3701   882.6105 H6            1 RES     
   26918 H6       -1003.3400  -734.7729   882.8624 H6            1 RES     
   26919 H6       -1004.4699  -737.5336   882.2026 H6            1 RES     
   26920 H6       -1005.4375  -736.0110   882.4202 H6            1 RES     
   26921 H6       -1003.3954  -737.1203   884.5178 H6            1 RES     
   26922 H6       -1004.3977  -735.6425   884.6728 H6            1 RES     
   26923 H6       -1006.4634  -737.0452   884.7430 H6            1 RES     
   26924 H6       -1005.2805  -737.3103   886.0746 H6            1 RES     
   26925 H6       -1004.3970  -739.3494   885.0069 H6            1 RES     
   26926 H6       -1005.5963  -739.1771   883.6565 H6            1 RES     
   26927 H6       -1006.1590  -739.4611   885.3515 H6            1 RES     
   26928 H6        -999.5602  -733.9218   880.0831 H6            1 RES     
   26929 H6       -1000.8161  -734.5592   878.9846 H6            1 RES     
   26930 H6        -999.3904  -735.8123   878.0410 H6            1 RES     
   26931 H6        -997.8430  -736.1843   878.7025 H6            1 RES     
   26932 H6       -1000.2505  -738.1508   878.5724 H6            1 RES     
   26933 H6        -998.2460  -738.9307   879.8191 H6            1 RES     
   26934 H6        -998.7826  -740.0092   878.4986 H6            1 RES     
   26935 H6        -996.9476  -739.3510   877.0149 H6            1 RES     
   26936 H6        -996.4549  -738.0499   878.1148 H6            1 RES     
   26937 H6        -994.8914  -739.8072   878.4472 H6            1 RES     
   26938 H6        -995.9156  -739.7738   879.8953 H6            1 RES     
   26939 H6        -997.2247  -741.7366   879.0470 H6            1 RES     
   26940 H6        -995.4781  -742.0645   879.2755 H6            1 RES     
   26941 H6        -996.8664  -741.5673   876.5568 H6            1 RES     
   26942 H6        -996.3022  -743.1294   877.2304 H6            1 RES     
   26943 H6        -993.9305  -742.2903   877.2293 H6            1 RES     
   26944 H6        -994.6769  -742.2893   875.5863 H6            1 RES     
   26945 H6        -994.4898  -740.7445   876.4685 H6            1 RES     
   26946 H6       -1000.3481  -737.4043   876.3769 H6            1 RES     
   26947 H6        -999.4682  -738.9564   876.2912 H6            1 RES     
   26948 H6        -997.2900  -737.4524   876.0972 H6            1 RES     
   26949 H6        -998.3716  -736.0552   876.0061 H6            1 RES     
   26950 H6        -997.5201  -736.8277   873.8458 H6            1 RES     
   26951 H6        -998.2212  -738.4665   874.0722 H6            1 RES     
   26952 H6        -999.8602  -735.8435   873.8219 H6            1 RES     
   26953 H6       -1000.5185  -737.5096   874.0180 H6            1 RES     
   26954 H6        -999.4742  -738.1962   871.8382 H6            1 RES     
   26955 H6       -1000.6852  -736.8726   871.6970 H6            1 RES     
   26956 H6        -997.6239  -736.4719   871.6908 H6            1 RES     
   26957 H6        -998.8540  -735.1657   871.5493 H6            1 RES     
   26958 H6        -997.8072  -735.8085   869.3862 H6            1 RES     
   26959 H6        -998.3801  -737.5035   869.5706 H6            1 RES     
   26960 H6       -1000.7623  -736.6915   869.4275 H6            1 RES     
   26961 H6        -999.7970  -736.1759   868.0059 H6            1 RES     
   26962 H6       -1000.1615  -734.9846   869.3088 H6            1 RES     
   26963 C0       -1007.2139  -730.5024   889.2848 C0            1 RES     
   26964 C0       -1007.0351  -729.9359   890.7511 C0            1 RES     
   26965 C0       -1005.7304  -729.6943   891.0211 C0            1 RES     
   26966 S1       -1005.4533  -729.0523   892.5468 S1            1 RES     
   26967 C0       -1007.1028  -729.0455   892.9546 C0            1 RES     
   26968 C0       -1007.8153  -729.6328   891.8991 C0            1 RES     
   26969 C0       -1004.9318  -730.1349   889.9384 C0            1 RES     
   26970 C0       -1005.7129  -730.6011   888.9906 C0            1 RES     
   26971 C0       -1004.9447  -731.2483   887.9644 C0            1 RES     
   26972 C0       -1003.5915  -731.2250   888.2494 C0            1 RES     
   26973 S1       -1003.1689  -730.3369   889.7586 S1            1 RES     
   26974 H2       -1008.8617  -729.7778   891.9759 H2            1 RES     
   26975 H2       -1005.3686  -731.7935   887.1749 H2            1 RES     
   26976 N3       -1009.7026  -727.6119   895.3269 N3            1 RES     
   26977 C0       -1009.1241  -728.2452   894.2682 C0            1 RES     
   26978 C0       -1007.7178  -728.4249   894.1811 C0            1 RES     
   26979 C0       -1006.9570  -727.9230   895.2590 C0            1 RES     
   26980 N3       -1005.6046  -728.0068   895.3555 N3            1 RES     
   26981 S1       -1005.3004  -727.2639   896.7982 S1            1 RES     
   26982 N3       -1006.7919  -726.8149   897.3380 N3            1 RES     
   26983 C0       -1007.6050  -727.2688   896.3477 C0            1 RES     
   26984 C0       -1008.9807  -727.1185   896.3627 C0            1 RES     
   26985 H4       -1009.7758  -728.5739   893.4855 H4            1 RES     
   26986 C5       -1007.2942  -721.2322   895.1096 C5            1 RES     
   26987 C5       -1006.6899  -722.6363   895.1096 C5            1 RES     
   26988 C5       -1007.5944  -723.6834   894.4378 C5            1 RES     
   26989 C5       -1007.7852  -723.4482   892.9281 C5            1 RES     
   26990 C5       -1008.6613  -724.5478   892.3086 C5            1 RES     
   26991 C5       -1008.7376  -724.4078   890.7723 C5            1 RES     
   26992 C5       -1009.5588  -725.5121   890.0548 C5            1 RES     
   26993 C5       -1009.1013  -726.9025   890.4988 C5            1 RES     
   26994 C5       -1009.4979  -728.1126   889.6161 C5            1 RES     
   26995 C5       -1011.0053  -728.5756   889.5715 C5            1 RES     
   26996 C5       -1011.3010  -729.2475   890.9411 C5            1 RES     
   26997 C5       -1012.5981  -729.9227   891.4021 C5            1 RES     
   26998 C5       -1012.2821  -730.4401   892.8442 C5            1 RES     
   26999 C5       -1013.3858  -731.1759   893.6019 C5            1 RES     
   27000 C5       -1013.6832  -732.5578   893.0330 C5            1 RES     
   27001 C5       -1008.5984  -728.2520   888.3795 C5            1 RES     
   27002 C0       -1008.1181  -729.7409   888.1329 C0            1 RES     
   27003 C5       -1007.7652  -729.9153   886.5929 C5            1 RES     
   27004 C5       -1008.4686  -731.0737   885.8030 C5            1 RES     
   27005 C5       -1007.7383  -732.4451   885.8893 C5            1 RES     
   27006 C5       -1006.4763  -732.5762   885.0039 C5            1 RES     
   27007 C5       -1005.6294  -733.8235   885.3243 C5            1 RES     
   27008 C5       -1006.2572  -735.1670   884.9213 C5            1 RES     
   27009 C5       -1006.4746  -735.3472   883.4064 C5            1 RES     
   27010 C5       -1005.1802  -735.2407   882.5939 C5            1 RES     
   27011 C5       -1008.8485  -730.6814   884.3225 C5            1 RES     
   27012 C5       -1007.7639  -729.9552   883.4798 C5            1 RES     
   27013 C5       -1008.1077  -729.8086   881.9804 C5            1 RES     
   27014 C5       -1009.3670  -728.9736   881.6747 C5            1 RES     
   27015 C5       -1009.6295  -728.8091   880.1574 C5            1 RES     
   27016 C5       -1008.5598  -727.9623   879.4330 C5            1 RES     
   27017 C5       -1008.8056  -727.8030   877.9204 C5            1 RES     
   27018 C5       -1010.0800  -727.0316   877.5774 C5            1 RES     
   27019 H6       -1007.4183  -720.8475   894.0774 H6            1 RES     
   27020 H6       -1006.6181  -720.5393   895.6535 H6            1 RES     
   27021 H6       -1008.2795  -721.2405   895.6223 H6            1 RES     
   27022 H6       -1005.6954  -722.6159   894.6125 H6            1 RES     
   27023 H6       -1006.5380  -722.9399   896.1685 H6            1 RES     
   27024 H6       -1007.1123  -724.6770   894.5771 H6            1 RES     
   27025 H6       -1008.5801  -723.7038   894.9507 H6            1 RES     
   27026 H6       -1006.7821  -723.4611   892.4457 H6            1 RES     
   27027 H6       -1008.2625  -722.4654   892.7366 H6            1 RES     
   27028 H6       -1008.1889  -725.5199   892.5654 H6            1 RES     
   27029 H6       -1009.6810  -724.5146   892.7483 H6            1 RES     
   27030 H6       -1009.1552  -723.4152   890.4985 H6            1 RES     
   27031 H6       -1007.6952  -724.4564   890.3843 H6            1 RES     
   27032 H6       -1010.6457  -725.4076   890.2603 H6            1 RES     
   27033 H6       -1009.3908  -725.3819   888.9639 H6            1 RES     
   27034 H6       -1009.4474  -727.0599   891.5374 H6            1 RES     
   27035 H6       -1007.9884  -726.8990   890.5457 H6            1 RES     
   27036 H6       -1009.0772  -728.8938   890.1374 H6            1 RES     
   27037 H6       -1011.6781  -727.7222   889.3441 H6            1 RES     
   27038 H6       -1011.1377  -729.3566   888.7905 H6            1 RES     
   27039 H6       -1010.6007  -730.1035   890.9666 H6            1 RES     
   27040 H6       -1011.0781  -728.4821   891.7035 H6            1 RES     
   27041 H6       -1012.8566  -730.7653   890.7249 H6            1 RES     
   27042 H6       -1013.4335  -729.1927   891.4294 H6            1 RES     
   27043 H6       -1011.3888  -731.1085   892.8257 H6            1 RES     
   27044 H6       -1012.0180  -729.5578   893.4677 H6            1 RES     
   27045 H6       -1014.3021  -730.5530   893.6459 H6            1 RES     
   27046 H6       -1013.0198  -731.3298   894.6434 H6            1 RES     
   27047 H6       -1012.7600  -733.1791   893.0338 H6            1 RES     
   27048 H6       -1014.0808  -732.4837   892.0024 H6            1 RES     
   27049 H6       -1014.4345  -733.0591   893.6800 H6            1 RES     
   27050 H6       -1007.6567  -727.6705   888.4831 H6            1 RES     
   27051 H6       -1009.1680  -727.7988   887.5397 H6            1 RES     
   27052 H6       -1008.1984  -729.0215   886.1051 H6            1 RES     
   27053 H6       -1006.6859  -729.8051   886.3676 H6            1 RES     
   27054 H6       -1009.4502  -731.2315   886.3044 H6            1 RES     
   27055 H6       -1007.4970  -732.6238   886.9580 H6            1 RES     
   27056 H6       -1008.4407  -733.2466   885.5737 H6            1 RES     
   27057 H6       -1006.7472  -732.5866   883.9311 H6            1 RES     
   27058 H6       -1005.8309  -731.6910   885.1573 H6            1 RES     
   27059 H6       -1004.6476  -733.7227   884.8188 H6            1 RES     
   27060 H6       -1005.4156  -733.8555   886.4123 H6            1 RES     
   27061 H6       -1007.2244  -735.3001   885.4496 H6            1 RES     
   27062 H6       -1005.5742  -735.9736   885.2671 H6            1 RES     
   27063 H6       -1007.2101  -734.6096   883.0246 H6            1 RES     
   27064 H6       -1006.8995  -736.3609   883.2451 H6            1 RES     
   27065 H6       -1004.4301  -735.9742   882.9597 H6            1 RES     
   27066 H6       -1005.3934  -735.4523   881.5257 H6            1 RES     
   27067 H6       -1004.7523  -734.2186   882.6512 H6            1 RES     
   27068 H6       -1009.7092  -729.9796   884.3672 H6            1 RES     
   27069 H6       -1009.2038  -731.5963   883.8002 H6            1 RES     
   27070 H6       -1006.8076  -730.4946   883.5020 H6            1 RES     
   27071 H6       -1007.5670  -728.9486   883.9065 H6            1 RES     
   27072 H6       -1007.2289  -729.3226   881.5119 H6            1 RES     
   27073 H6       -1008.2227  -730.8194   881.5302 H6            1 RES     
   27074 H6       -1009.2819  -727.9668   882.1383 H6            1 RES     
   27075 H6       -1010.2446  -729.4900   882.1138 H6            1 RES     
   27076 H6       -1009.7049  -729.8110   879.6808 H6            1 RES     
   27077 H6       -1010.6123  -728.3008   880.0471 H6            1 RES     
   27078 H6       -1007.5714  -728.4525   879.5352 H6            1 RES     
   27079 H6       -1008.5011  -726.9555   879.9013 H6            1 RES     
   27080 H6       -1007.9471  -727.2392   877.4928 H6            1 RES     
   27081 H6       -1008.8352  -728.8022   877.4348 H6            1 RES     
   27082 H6       -1010.9832  -727.5752   877.9199 H6            1 RES     
   27083 H6       -1010.1509  -726.9139   876.4747 H6            1 RES     
   27084 H6       -1010.0558  -726.0213   878.0379 H6            1 RES     
   27085 C0       -1012.9578  -725.2492   899.4820 C0            1 RES     
   27086 C0       -1012.4476  -725.0875   900.9708 C0            1 RES     
   27087 C0       -1011.0961  -725.1493   901.0289 C0            1 RES     
   27088 S1       -1010.4660  -724.9468   902.5712 S1            1 RES     
   27089 C0       -1011.9972  -724.7483   903.2806 C0            1 RES     
   27090 C0       -1012.9666  -724.9340   902.2844 C0            1 RES     
   27091 C0       -1010.5790  -725.4528   899.7464 C0            1 RES     
   27092 C0       -1011.5729  -725.5364   898.8915 C0            1 RES     
   27093 C0       -1011.1209  -726.0455   897.6271 C0            1 RES     
   27094 C0       -1009.7671  -726.3279   897.6459 C0            1 RES     
   27095 S1       -1008.9463  -725.9119   899.1944 S1            1 RES     
   27096 H2       -1013.9967  -724.9075   902.5294 H2            1 RES     
   27097 H2       -1011.7634  -726.3046   896.8395 H2            1 RES     
   27098 N3       -1013.8510  -723.4869   906.3489 N3            1 RES     
   27099 C0       -1013.5840  -723.9418   905.0925 C0            1 RES     
   27100 C0       -1012.2773  -724.3391   904.7024 C0            1 RES     
   27101 C0       -1011.2762  -724.2487   905.6935 C0            1 RES     
   27102 N3       -1009.9739  -724.5886   905.5096 N3            1 RES     
   27103 S1       -1009.3082  -724.2748   906.9875 S1            1 RES     
   27104 N3       -1010.5729  -723.7128   907.8833 N3            1 RES     
   27105 C0       -1011.6013  -723.7689   906.9962 C0            1 RES     
   27106 C0       -1012.8954  -723.3879   907.3052 C0            1 RES     
   27107 H4       -1014.3992  -723.9558   904.3992 H4            1 RES     
   27108 C5       -1010.1940  -717.7614   906.9765 C5            1 RES     
   27109 C5       -1009.9105  -719.2088   906.5748 C5            1 RES     
   27110 C5       -1011.1070  -719.8913   905.8902 C5            1 RES     
   27111 C5       -1011.4639  -719.2745   904.5253 C5            1 RES     
   27112 C5       -1012.6364  -720.0246   903.8749 C5            1 RES     
   27113 C5       -1012.9071  -719.5125   902.4430 C5            1 RES     
   27114 C5       -1014.0420  -720.2534   901.6870 C5            1 RES     
   27115 C5       -1013.8318  -721.7675   901.7425 C5            1 RES     
   27116 C5       -1014.6038  -722.6446   900.7248 C5            1 RES     
   27117 C5       -1016.1649  -722.8124   900.8770 C5            1 RES     
   27118 C5       -1016.3918  -723.7279   902.1119 C5            1 RES     
   27119 C5       -1017.7206  -724.2554   902.6660 C5            1 RES     
   27120 C5       -1017.3130  -725.1477   903.8845 C5            1 RES     
   27121 C5       -1018.4242  -725.8374   904.6740 C5            1 RES     
   27122 C5       -1019.0906  -726.9705   903.9037 C5            1 RES     
   27123 C5       -1013.9476  -722.6415   899.3366 C5            1 RES     
   27124 C0       -1013.8384  -724.0895   898.7047 C0            1 RES     
   27125 C5       -1013.7623  -723.9521   897.1229 C5            1 RES     
   27126 C5       -1014.8058  -724.7482   896.2638 C5            1 RES     
   27127 C5       -1014.3809  -726.2069   895.9274 C5            1 RES     
   27128 C5       -1013.3210  -726.3428   894.8085 C5            1 RES     
   27129 C5       -1012.7224  -727.7589   894.6997 C5            1 RES     
   27130 C5       -1013.6753  -728.8370   894.1598 C5            1 RES     
   27131 C5       -1014.1475  -728.6112   892.7104 C5            1 RES     
   27132 C5       -1012.9947  -728.5431   891.7037 C5            1 RES     
   27133 C5       -1015.3075  -723.9551   894.9951 C5            1 RES     
   27134 C5       -1014.2294  -723.2510   894.1257 C5            1 RES     
   27135 C5       -1014.7515  -722.6946   892.7820 C5            1 RES     
   27136 C5       -1015.8344  -721.6036   892.9001 C5            1 RES     
   27137 C5       -1016.2767  -721.0400   891.5272 C5            1 RES     
   27138 C5       -1015.1699  -720.2462   890.7988 C5            1 RES     
   27139 C5       -1015.5966  -719.6916   889.4262 C5            1 RES     
   27140 C5       -1016.7130  -718.6500   889.4984 C5            1 RES     
   27141 H6       -1010.3841  -717.1269   906.0876 H6            1 RES     
   27142 H6       -1009.3127  -717.3470   907.5100 H6            1 RES     
   27143 H6       -1011.0715  -717.7186   907.6561 H6            1 RES     
   27144 H6       -1009.0192  -719.2453   905.9109 H6            1 RES     
   27145 H6       -1009.6723  -719.7771   907.5005 H6            1 RES     
   27146 H6       -1010.8332  -720.9582   905.7292 H6            1 RES     
   27147 H6       -1011.9874  -719.8600   906.5677 H6            1 RES     
   27148 H6       -1010.5693  -719.3480   903.8670 H6            1 RES     
   27149 H6       -1011.7431  -718.2065   904.6331 H6            1 RES     
   27150 H6       -1012.3501  -721.0971   903.8329 H6            1 RES     
   27151 H6       -1013.5491  -719.9188   904.4994 H6            1 RES     
   27152 H6       -1013.1387  -718.4260   902.4623 H6            1 RES     
   27153 H6       -1011.9681  -719.6493   901.8606 H6            1 RES     
   27154 H6       -1015.0390  -720.0120   902.1141 H6            1 RES     
   27155 H6       -1014.0132  -719.8993   900.6339 H6            1 RES     
   27156 H6       -1014.0463  -722.1039   902.7740 H6            1 RES     
   27157 H6       -1012.7494  -721.9701   901.5747 H6            1 RES     
   27158 H6       -1014.2874  -723.5884   900.9855 H6            1 RES     
   27159 H6       -1016.6659  -721.8251   900.9615 H6            1 RES     
   27160 H6       -1016.5751  -723.3498   899.9937 H6            1 RES     
   27161 H6       -1015.8948  -724.6745   901.8278 H6            1 RES     
   27162 H6       -1015.9004  -723.2167   902.9569 H6            1 RES     
   27163 H6       -1018.2503  -724.8543   901.8940 H6            1 RES     
   27164 H6       -1018.3672  -723.4181   903.0011 H6            1 RES     
   27165 H6       -1016.5959  -725.9383   903.5593 H6            1 RES     
   27166 H6       -1016.7773  -724.4990   904.6120 H6            1 RES     
   27167 H6       -1019.1694  -725.0922   905.0189 H6            1 RES     
   27168 H6       -1017.9497  -726.2960   905.5724 H6            1 RES     
   27169 H6       -1018.3319  -727.7260   903.6008 H6            1 RES     
   27170 H6       -1019.6110  -726.5853   903.0056 H6            1 RES     
   27171 H6       -1019.8277  -727.4717   904.5670 H6            1 RES     
   27172 H6       -1012.8987  -722.2754   899.3738 H6            1 RES     
   27173 H6       -1014.5248  -721.9092   898.7318 H6            1 RES     
   27174 H6       -1014.0617  -722.9064   896.9197 H6            1 RES     
   27175 H6       -1012.7298  -723.9823   896.7220 H6            1 RES     
   27176 H6       -1015.7134  -724.8462   896.9014 H6            1 RES     
   27177 H6       -1014.0282  -726.6737   896.8707 H6            1 RES     
   27178 H6       -1015.2771  -726.7747   895.5960 H6            1 RES     
   27179 H6       -1013.7433  -726.0505   893.8283 H6            1 RES     
   27180 H6       -1012.4859  -725.6465   895.0121 H6            1 RES     
   27181 H6       -1011.8274  -727.7145   894.0464 H6            1 RES     
   27182 H6       -1012.3621  -728.0855   895.6967 H6            1 RES     
   27183 H6       -1014.5597  -728.9203   894.8255 H6            1 RES     
   27184 H6       -1013.1370  -729.8094   894.1965 H6            1 RES     
   27185 H6       -1014.7565  -727.6870   892.6351 H6            1 RES     
   27186 H6       -1014.7983  -729.4670   892.4307 H6            1 RES     
   27187 H6       -1012.3731  -729.4622   891.7616 H6            1 RES     
   27188 H6       -1013.4036  -728.4542   890.6759 H6            1 RES     
   27189 H6       -1012.3547  -727.6550   891.8846 H6            1 RES     
   27190 H6       -1015.9821  -723.1445   895.3460 H6            1 RES     
   27191 H6       -1015.9232  -724.6430   894.3756 H6            1 RES     
   27192 H6       -1013.4180  -723.9391   893.8538 H6            1 RES     
   27193 H6       -1013.7611  -722.4251   894.7025 H6            1 RES     
   27194 H6       -1013.8682  -722.2728   892.2624 H6            1 RES     
   27195 H6       -1015.1451  -723.5333   892.1661 H6            1 RES     
   27196 H6       -1015.4685  -720.7667   893.5337 H6            1 RES     
   27197 H6       -1016.7273  -722.0477   893.3849 H6            1 RES     
   27198 H6       -1016.6341  -721.8709   890.8802 H6            1 RES     
   27199 H6       -1017.1335  -720.3561   891.7133 H6            1 RES     
   27200 H6       -1014.3051  -720.9119   890.6075 H6            1 RES     
   27201 H6       -1014.8288  -719.4058   891.4420 H6            1 RES     
   27202 H6       -1014.7102  -719.2017   888.9657 H6            1 RES     
   27203 H6       -1015.9104  -720.5258   888.7623 H6            1 RES     
   27204 H6       -1017.6508  -719.0925   889.8899 H6            1 RES     
   27205 H6       -1016.9192  -718.2631   888.4773 H6            1 RES     
   27206 H6       -1016.4058  -717.7982   890.1416 H6            1 RES     
   27207 C0       -1015.8758  -721.6464   911.4436 C0            1 RES     
   27208 C0       -1015.1286  -721.9349   912.8080 C0            1 RES     
   27209 C0       -1013.8282  -722.2444   912.5918 C0            1 RES     
   27210 S1       -1012.9486  -722.5277   913.9929 S1            1 RES     
   27211 C0       -1014.2801  -722.2384   915.0081 C0            1 RES     
   27212 C0       -1015.4030  -722.0095   914.2000 C0            1 RES     
   27213 C0       -1013.5831  -722.3204   911.1996 C0            1 RES     
   27214 C0       -1014.6870  -722.0230   910.5525 C0            1 RES     
   27215 C0       -1014.5461  -722.2883   909.1482 C0            1 RES     
   27216 C0       -1013.2964  -722.7996   908.8489 C0            1 RES     
   27217 S1       -1012.1861  -722.9137   910.2629 S1            1 RES     
   27218 H2       -1016.3559  -721.8620   914.6382 H2            1 RES     
   27219 H2       -1015.3382  -722.2363   908.4625 H2            1 RES     
   27220 N3       -1015.3475  -721.4375   918.5664 N3            1 RES     
   27221 C0       -1015.3724  -721.6204   917.2163 C0            1 RES     
   27222 C0       -1014.2531  -722.1361   916.5103 C0            1 RES     
   27223 C0       -1013.1206  -722.4605   917.2881 C0            1 RES     
   27224 N3       -1011.9628  -722.9696   916.7924 N3            1 RES     
   27225 S1       -1011.0347  -723.1374   918.1475 S1            1 RES     
   27226 N3       -1012.0035  -722.5919   919.3646 N3            1 RES     
   27227 C0       -1013.1396  -722.2546   918.6988 C0            1 RES     
   27228 C0       -1014.2623  -721.7374   919.3213 C0            1 RES     
   27229 H4       -1016.2650  -721.3263   916.7043 H4            1 RES     
   27230 C5       -1010.4998  -716.7565   919.6325 C5            1 RES     
   27231 C5       -1010.5947  -718.0936   918.8979 C5            1 RES     
   27232 C5       -1011.9970  -718.3736   918.3313 C5            1 RES     
   27233 C5       -1012.4115  -717.3975   917.2150 C5            1 RES     
   27234 C5       -1013.8001  -717.7544   916.6628 C5            1 RES     
   27235 C5       -1014.1635  -716.8776   915.4442 C5            1 RES     
   27236 C5       -1015.5295  -717.2071   914.7854 C5            1 RES     
   27237 C5       -1015.6419  -718.7038   914.4902 C5            1 RES     
   27238 C5       -1016.7251  -719.1648   913.4828 C5            1 RES     
   27239 C5       -1018.2460  -719.0880   913.8943 C5            1 RES     
   27240 C5       -1018.4784  -720.2164   914.9371 C5            1 RES     
   27241 C5       -1019.7924  -720.6193   915.6167 C5            1 RES     
   27242 C5       -1019.4095  -721.8327   916.5267 C5            1 RES     
   27243 C5       -1020.5133  -722.4847   917.3575 C5            1 RES     
   27244 C5       -1021.5128  -723.2676   916.5152 C5            1 RES     
   27245 C5       -1016.2958  -718.9470   912.0246 C5            1 RES     
   27246 C0       -1016.5932  -720.1996   911.1023 C0            1 RES     
   27247 C5       -1016.7239  -719.7059   909.5970 C5            1 RES     
   27248 C5       -1018.0286  -720.0797   908.8104 C5            1 RES     
   27249 C5       -1017.9797  -721.4679   908.1090 C5            1 RES     
   27250 C5       -1017.1505  -721.5175   906.8038 C5            1 RES     
   27251 C5       -1016.8912  -722.9496   906.2962 C5            1 RES     
   27252 C5       -1018.1214  -723.6845   905.7412 C5            1 RES     
   27253 C5       -1018.7433  -723.0418   904.4863 C5            1 RES     
   27254 C5       -1017.7642  -722.9394   903.3124 C5            1 RES     
   27255 C5       -1018.5310  -718.9327   907.8501 C5            1 RES     
   27256 C5       -1017.4678  -718.2422   906.9518 C5            1 RES     
   27257 C5       -1018.0516  -717.2999   905.8752 C5            1 RES     
   27258 C5       -1018.8467  -716.0960   906.4184 C5            1 RES     
   27259 C5       -1019.3562  -715.1539   905.2999 C5            1 RES     
   27260 C5       -1018.2253  -714.4162   904.5497 C5            1 RES     
   27261 C5       -1018.7216  -713.4856   903.4267 C5            1 RES     
   27262 C5       -1019.5664  -712.3120   903.9223 C5            1 RES     
   27263 H6       -1010.6790  -715.9057   918.9448 H6            1 RES     
   27264 H6       -1009.4814  -716.6415   920.0600 H6            1 RES     
   27265 H6       -1011.2376  -716.7233   920.4622 H6            1 RES     
   27266 H6       -1009.8399  -718.1268   918.0820 H6            1 RES     
   27267 H6       -1010.3493  -718.8981   919.6253 H6            1 RES     
   27268 H6       -1011.9844  -719.4026   917.9071 H6            1 RES     
   27269 H6       -1012.7405  -718.3505   919.1571 H6            1 RES     
   27270 H6       -1011.6605  -717.4679   916.3963 H6            1 RES     
   27271 H6       -1012.4370  -716.3538   917.5894 H6            1 RES     
   27272 H6       -1013.7590  -718.8193   916.3493 H6            1 RES     
   27273 H6       -1014.5666  -717.6418   917.4591 H6            1 RES     
   27274 H6       -1014.1522  -715.8034   915.7283 H6            1 RES     
   27275 H6       -1013.3721  -717.0343   914.6771 H6            1 RES     
   27276 H6       -1016.3776  -716.9034   915.4359 H6            1 RES     
   27277 H6       -1015.5815  -716.6236   913.8409 H6            1 RES     
   27278 H6       -1015.7685  -719.2327   915.4532 H6            1 RES     
   27279 H6       -1014.6648  -719.0470   914.0801 H6            1 RES     
   27280 H6       -1016.5828  -720.1840   913.4803 H6            1 RES     
   27281 H6       -1018.5063  -718.0770   914.2725 H6            1 RES     
   27282 H6       -1018.8874  -719.3198   913.0155 H6            1 RES     
   27283 H6       -1018.2426  -721.1403   914.3762 H6            1 RES     
   27284 H6       -1017.7698  -720.0147   915.7580 H6            1 RES     
   27285 H6       -1020.5460  -720.9154   914.8552 H6            1 RES     
   27286 H6       -1020.1884  -719.7857   916.2329 H6            1 RES     
   27287 H6       -1018.9340  -722.6364   915.9160 H6            1 RES     
   27288 H6       -1018.6461  -721.4795   917.2544 H6            1 RES     
   27289 H6       -1021.0227  -721.7241   917.9833 H6            1 RES     
   27290 H6       -1020.0205  -723.2192   918.0357 H6            1 RES     
   27291 H6       -1020.9863  -724.0504   915.9251 H6            1 RES     
   27292 H6       -1022.0657  -722.5951   915.8313 H6            1 RES     
   27293 H6       -1022.2338  -723.7749   917.1914 H6            1 RES     
   27294 H6       -1015.1992  -718.7897   911.9336 H6            1 RES     
   27295 H6       -1016.7860  -718.0026   911.7039 H6            1 RES     
   27296 H6       -1016.8196  -718.6061   909.6722 H6            1 RES     
   27297 H6       -1015.7925  -719.8203   909.0078 H6            1 RES     
   27298 H6       -1018.8318  -720.1658   909.5768 H6            1 RES     
   27299 H6       -1017.5996  -722.1998   908.8520 H6            1 RES     
   27300 H6       -1019.0154  -721.7748   907.8473 H6            1 RES     
   27301 H6       -1017.6406  -720.9314   906.0032 H6            1 RES     
   27302 H6       -1016.1652  -721.0468   906.9807 H6            1 RES     
   27303 H6       -1016.1139  -722.9087   905.5063 H6            1 RES     
   27304 H6       -1016.4657  -723.5615   907.1178 H6            1 RES     
   27305 H6       -1018.8950  -723.7673   906.5332 H6            1 RES     
   27306 H6       -1017.8040  -724.7166   905.4754 H6            1 RES     
   27307 H6       -1019.1450  -722.0342   904.7190 H6            1 RES     
   27308 H6       -1019.5959  -723.6791   904.1685 H6            1 RES     
   27309 H6       -1017.3518  -723.9401   903.0617 H6            1 RES     
   27310 H6       -1018.2919  -722.5387   902.4222 H6            1 RES     
   27311 H6       -1016.9296  -722.2459   903.5441 H6            1 RES     
   27312 H6       -1018.9574  -718.1234   908.4814 H6            1 RES     
   27313 H6       -1019.3641  -719.3349   907.2334 H6            1 RES     
   27314 H6       -1016.8715  -718.9772   906.3950 H6            1 RES     
   27315 H6       -1016.7540  -717.6721   907.5838 H6            1 RES     
   27316 H6       -1017.1852  -716.9282   905.2927 H6            1 RES     
   27317 H6       -1018.7019  -717.8860   905.1887 H6            1 RES     
   27318 H6       -1018.2210  -715.5109   907.1269 H6            1 RES     
   27319 H6       -1019.7323  -716.4791   906.9648 H6            1 RES     
   27320 H6       -1019.9744  -715.7315   904.5782 H6            1 RES     
   27321 H6       -1020.0099  -714.3946   905.7822 H6            1 RES     
   27322 H6       -1017.5607  -715.1583   904.0646 H6            1 RES     
   27323 H6       -1017.6213  -713.8258   905.2729 H6            1 RES     
   27324 H6       -1017.8289  -713.0633   902.9142 H6            1 RES     
   27325 H6       -1019.3009  -714.0699   902.6798 H6            1 RES     
   27326 H6       -1020.5088  -712.6635   904.3880 H6            1 RES     
   27327 H6       -1019.8337  -711.6636   903.0602 H6            1 RES     
   27328 H6       -1018.9927  -711.7047   904.6541 H6            1 RES     
   27329 C0       -1016.1569  -720.5347   924.2209 C0            1 RES     
   27330 C0       -1015.2955  -721.2653   925.3287 C0            1 RES     
   27331 C0       -1014.1378  -721.7374   924.8086 C0            1 RES     
   27332 S1       -1013.1420  -722.4948   925.9273 S1            1 RES     
   27333 C0       -1014.2160  -722.2265   927.2164 C0            1 RES     
   27334 C0       -1015.3708  -721.6191   926.7026 C0            1 RES     
   27335 C0       -1014.1231  -721.5221   923.4095 C0            1 RES     
   27336 C0       -1015.2211  -720.8910   923.0606 C0            1 RES     
   27337 C0       -1015.3491  -720.8355   921.6313 C0            1 RES     
   27338 C0       -1014.2957  -721.4718   921.0001 C0            1 RES     
   27339 S1       -1013.0392  -722.1111   922.1213 S1            1 RES     
   27340 H2       -1016.1948  -721.4155   927.3362 H2            1 RES     
   27341 H2       -1016.2042  -720.4843   921.1356 H2            1 RES     
   27342 N3       -1014.5501  -722.1195   931.0005 N3            1 RES     
   27343 C0       -1014.8127  -721.9693   929.6719 C0            1 RES     
   27344 C0       -1013.9463  -722.4903   928.6743 C0            1 RES     
   27345 C0       -1012.8071  -723.1833   929.1376 C0            1 RES     
   27346 N3       -1011.8711  -723.7547   928.3360 N3            1 RES     
   27347 S1       -1010.8105  -724.3995   929.4247 S1            1 RES     
   27348 N3       -1011.4497  -723.9977   930.8902 N3            1 RES     
   27349 C0       -1012.5731  -723.3183   930.5376 C0            1 RES     
   27350 C0       -1013.4547  -722.7755   931.4560 C0            1 RES     
   27351 H4       -1015.6874  -721.4103   929.4114 H4            1 RES     
   27352 C5       -1008.7110  -718.7492   932.0466 C5            1 RES     
   27353 C5       -1009.1969  -719.8356   931.0874 C5            1 RES     
   27354 C5       -1010.6946  -719.7230   930.7555 C5            1 RES     
   27355 C5       -1011.0512  -718.4526   929.9619 C5            1 RES     
   27356 C5       -1012.5499  -718.4193   929.6256 C5            1 RES     
   27357 C5       -1012.8934  -717.2284   928.7039 C5            1 RES     
   27358 C5       -1014.3803  -717.1475   928.2664 C5            1 RES     
   27359 C5       -1014.8522  -718.4877   927.6999 C5            1 RES     
   27360 C5       -1016.1456  -718.4993   926.8467 C5            1 RES     
   27361 C5       -1017.5371  -718.2573   927.5493 C5            1 RES     
   27362 C5       -1017.8486  -719.5424   928.3654 C5            1 RES     
   27363 C5       -1019.1032  -719.8587   929.1880 C5            1 RES     
   27364 C5       -1018.8583  -721.3014   929.7413 C5            1 RES     
   27365 C5       -1019.9409  -721.9284   930.6180 C5            1 RES     
   27366 C5       -1021.1978  -722.3013   929.8417 C5            1 RES     
   27367 C5       -1015.8998  -718.0200   925.4087 C5            1 RES     
   27368 C0       -1016.5909  -718.9456   924.3253 C0            1 RES     
   27369 C5       -1016.8340  -718.0934   923.0057 C5            1 RES     
   27370 C5       -1018.2900  -718.0352   922.4248 C5            1 RES     
   27371 C5       -1018.6430  -719.2035   921.4595 C5            1 RES     
   27372 C5       -1018.0456  -719.0861   920.0371 C5            1 RES     
   27373 C5       -1018.1762  -720.3792   919.2086 C5            1 RES     
   27374 C5       -1019.6033  -720.7341   918.7623 C5            1 RES     
   27375 C5       -1020.2518  -719.7130   917.8075 C5            1 RES     
   27376 C5       -1019.4578  -719.5078   916.5135 C5            1 RES     
   27377 C5       -1018.6719  -716.6232   921.8326 C5            1 RES     
   27378 C5       -1017.6303  -715.9363   920.9068 C5            1 RES     
   27379 C5       -1018.1516  -714.6779   920.1769 C5            1 RES     
   27380 C5       -1018.5819  -713.5174   921.0960 C5            1 RES     
   27381 C5       -1019.0378  -712.2625   920.3117 C5            1 RES     
   27382 C5       -1017.8989  -711.5774   919.5246 C5            1 RES     
   27383 C5       -1018.3452  -710.3345   918.7310 C5            1 RES     
   27384 C5       -1018.8370  -709.1830   919.6079 C5            1 RES     
   27385 H6       -1008.8039  -717.7416   931.5939 H6            1 RES     
   27386 H6       -1007.6399  -718.9192   932.2850 H6            1 RES     
   27387 H6       -1009.2939  -718.7854   932.9914 H6            1 RES     
   27388 H6       -1008.5956  -719.8057   930.1524 H6            1 RES     
   27389 H6       -1009.0245  -720.8201   931.5749 H6            1 RES     
   27390 H6       -1010.9650  -720.6076   930.1363 H6            1 RES     
   27391 H6       -1011.2857  -719.7668   931.6957 H6            1 RES     
   27392 H6       -1010.4619  -718.4569   929.0175 H6            1 RES     
   27393 H6       -1010.7974  -717.5398   930.5387 H6            1 RES     
   27394 H6       -1012.7841  -719.3695   929.0999 H6            1 RES     
   27395 H6       -1013.1484  -718.3666   930.5600 H6            1 RES     
   27396 H6       -1012.6110  -716.2716   929.1931 H6            1 RES     
   27397 H6       -1012.2760  -717.3345   927.7836 H6            1 RES     
   27398 H6       -1015.0383  -716.8633   929.1154 H6            1 RES     
   27399 H6       -1014.4453  -716.3566   927.4883 H6            1 RES     
   27400 H6       -1014.9453  -719.1997   928.5411 H6            1 RES     
   27401 H6       -1014.0426  -718.8894   927.0488 H6            1 RES     
   27402 H6       -1016.2263  -719.4974   926.6096 H6            1 RES     
   27403 H6       -1017.5165  -717.3356   928.1681 H6            1 RES     
   27404 H6       -1018.3358  -718.1577   926.7815 H6            1 RES     
   27405 H6       -1017.9012  -720.3333   927.5936 H6            1 RES     
   27406 H6       -1017.0000  -719.6689   929.0586 H6            1 RES     
   27407 H6       -1020.0066  -719.8288   928.5412 H6            1 RES     
   27408 H6       -1019.2165  -719.1393   930.0253 H6            1 RES     
   27409 H6       -1018.6612  -722.0075   928.9001 H6            1 RES     
   27410 H6       -1017.9382  -721.2704   930.3653 H6            1 RES     
   27411 H6       -1020.1779  -721.2611   931.4714 H6            1 RES     
   27412 H6       -1019.5218  -722.8776   931.0250 H6            1 RES     
   27413 H6       -1020.9438  -723.0012   929.0148 H6            1 RES     
   27414 H6       -1021.6890  -721.3995   929.4281 H6            1 RES     
   27415 H6       -1021.9025  -722.8204   930.5261 H6            1 RES     
   27416 H6       -1014.8207  -718.0401   925.1429 H6            1 RES     
   27417 H6       -1016.2188  -716.9555   925.3871 H6            1 RES     
   27418 H6       -1016.6803  -717.0436   923.3201 H6            1 RES     
   27419 H6       -1016.0460  -718.2258   922.2380 H6            1 RES     
   27420 H6       -1018.9708  -718.1589   923.2972 H6            1 RES     
   27421 H6       -1018.3226  -720.1459   921.9509 H6            1 RES     
   27422 H6       -1019.7474  -719.2532   921.3444 H6            1 RES     
   27423 H6       -1018.5119  -718.2501   919.4818 H6            1 RES     
   27424 H6       -1016.9675  -718.8509   920.1137 H6            1 RES     
   27425 H6       -1017.5335  -720.2886   918.3094 H6            1 RES     
   27426 H6       -1017.7748  -721.2336   919.7912 H6            1 RES     
   27427 H6       -1020.2510  -720.8660   919.6542 H6            1 RES     
   27428 H6       -1019.5566  -721.7127   918.2360 H6            1 RES     
   27429 H6       -1020.3900  -718.7353   918.3131 H6            1 RES     
   27430 H6       -1021.2583  -720.0972   917.5363 H6            1 RES     
   27431 H6       -1019.3105  -720.4766   915.9900 H6            1 RES     
   27432 H6       -1020.0132  -718.8211   915.8416 H6            1 RES     
   27433 H6       -1018.4695  -719.0464   916.7169 H6            1 RES     
   27434 H6       -1018.8174  -715.9253   922.6853 H6            1 RES     
   27435 H6       -1019.6534  -716.7151   921.3186 H6            1 RES     
   27436 H6       -1017.2937  -716.6106   920.1081 H6            1 RES     
   27437 H6       -1016.7258  -715.6667   921.4926 H6            1 RES     
   27438 H6       -1017.3217  -714.3361   919.5271 H6            1 RES     
   27439 H6       -1019.0063  -714.9610   919.5233 H6            1 RES     
   27440 H6       -1017.7480  -713.2363   921.7753 H6            1 RES     
   27441 H6       -1019.4383  -713.8582   921.7127 H6            1 RES     
   27442 H6       -1019.8649  -712.5346   919.6199 H6            1 RES     
   27443 H6       -1019.4357  -711.5370   921.0547 H6            1 RES     
   27444 H6       -1017.4874  -712.2876   918.7803 H6            1 RES     
   27445 H6       -1017.0827  -711.2908   920.2232 H6            1 RES     
   27446 H6       -1017.4686  -709.9656   918.1537 H6            1 RES     
   27447 H6       -1019.1398  -710.6139   918.0062 H6            1 RES     
   27448 H6       -1019.7533  -709.4645   920.1643 H6            1 RES     
   27449 H6       -1019.0839  -708.3120   918.9634 H6            1 RES     
   27450 H6       -1018.0451  -708.8771   920.3240 H6            1 RES     
   27451 C0       -1014.3036  -722.4585   936.7683 C0            1 RES     
   27452 C0       -1013.4643  -723.5705   937.5179 C0            1 RES     
   27453 C0       -1012.5241  -724.1007   936.7004 C0            1 RES     
   27454 S1       -1011.5591  -725.2646   937.4291 S1            1 RES     
   27455 C0       -1012.3485  -725.1264   938.9275 C0            1 RES     
   27456 C0       -1013.4097  -724.2218   938.7794 C0            1 RES     
   27457 C0       -1012.6704  -723.5653   935.3981 C0            1 RES     
   27458 C0       -1013.6475  -722.6871   935.4022 C0            1 RES     
   27459 C0       -1013.9703  -722.2722   934.0659 C0            1 RES     
   27460 C0       -1013.1823  -722.9147   933.1283 C0            1 RES     
   27461 S1       -1011.9399  -724.0119   933.8335 S1            1 RES     
   27462 H2       -1014.0683  -724.0334   939.5873 H2            1 RES     
   27463 H2       -1014.7942  -721.6691   933.8255 H2            1 RES     
   27464 N3       -1012.0893  -725.8646   942.6464 N3            1 RES     
   27465 C0       -1012.5070  -725.3595   941.4518 C0            1 RES     
   27466 C0       -1011.9290  -725.7720   940.2217 C0            1 RES     
   27467 C0       -1010.9086  -726.7437   940.3069 C0            1 RES     
   27468 N3       -1010.2452  -727.2631   939.2414 N3            1 RES     
   27469 S1       -1009.1980  -728.3235   939.9519 S1            1 RES     
   27470 N3       -1009.5130  -728.1758   941.5633 N3            1 RES     
   27471 C0       -1010.5047  -727.2462   941.5786 C0            1 RES     
   27472 C0       -1011.1044  -726.7914   942.7400 C0            1 RES     
   27473 H4       -1013.2707  -724.6103   941.4833 H4            1 RES     
   27474 C5       -1005.5759  -723.9153   943.2162 C5            1 RES     
   27475 C5       -1006.4190  -724.6405   942.1674 C5            1 RES     
   27476 C5       -1007.8902  -724.1917   942.1591 C5            1 RES     
   27477 C5       -1008.0803  -722.7269   941.7242 C5            1 RES     
   27478 C5       -1009.5701  -722.3528   941.6956 C5            1 RES     
   27479 C5       -1009.7835  -720.9358   941.1190 C5            1 RES     
   27480 C5       -1011.2666  -720.4943   941.0008 C5            1 RES     
   27481 C5       -1012.0924  -721.5576   940.2747 C5            1 RES     
   27482 C5       -1013.4699  -721.1395   939.7014 C5            1 RES     
   27483 C5       -1014.6581  -720.8315   940.6922 C5            1 RES     
   27484 C5       -1015.1130  -722.1987   941.2739 C5            1 RES     
   27485 C5       -1016.2707  -722.4767   942.2401 C5            1 RES     
   27486 C5       -1016.2608  -724.0293   942.4306 C5            1 RES     
   27487 C5       -1017.3107  -724.6471   943.3525 C5            1 RES     
   27488 C5       -1018.7188  -724.5989   942.7725 C5            1 RES     
   27489 C5       -1013.3425  -720.3829   938.3712 C5            1 RES     
   27490 C0       -1014.3677  -720.8889   937.2753 C0            1 RES     
   27491 C5       -1014.6152  -719.7187   936.2285 C5            1 RES     
   27492 C5       -1016.0946  -719.2701   935.9619 C5            1 RES     
   27493 C5       -1016.8277  -720.0953   934.8651 C5            1 RES     
   27494 C5       -1016.4359  -719.7498   933.4088 C5            1 RES     
   27495 C5       -1016.9607  -720.7657   932.3752 C5            1 RES     
   27496 C5       -1018.4805  -720.7489   932.1483 C5            1 RES     
   27497 C5       -1019.0296  -719.4329   931.5640 C5            1 RES     
   27498 C5       -1018.4102  -719.0684   930.2110 C5            1 RES     
   27499 C5       -1016.2491  -717.7134   935.7541 C5            1 RES     
   27500 C5       -1015.2332  -717.0196   934.8051 C5            1 RES     
   27501 C5       -1015.5756  -715.5526   934.4606 C5            1 RES     
   27502 C5       -1015.6074  -714.5868   935.6618 C5            1 RES     
   27503 C5       -1015.8952  -713.1216   935.2517 C5            1 RES     
   27504 C5       -1014.7653  -712.4795   934.4169 C5            1 RES     
   27505 C5       -1015.0478  -711.0253   933.9936 C5            1 RES     
   27506 C5       -1015.1472  -710.0472   935.1642 C5            1 RES     
   27507 H6       -1005.5171  -722.8288   943.0045 H6            1 RES     
   27508 H6       -1004.5427  -724.3220   943.2050 H6            1 RES     
   27509 H6       -1006.0070  -724.0723   944.2279 H6            1 RES     
   27510 H6       -1005.9700  -724.4951   941.1605 H6            1 RES     
   27511 H6       -1006.3908  -725.7270   942.4020 H6            1 RES     
   27512 H6       -1008.4318  -724.8425   941.4365 H6            1 RES     
   27513 H6       -1008.3315  -724.3535   943.1662 H6            1 RES     
   27514 H6       -1007.6517  -722.6099   940.7035 H6            1 RES     
   27515 H6       -1007.5549  -722.0363   942.4151 H6            1 RES     
   27516 H6       -1010.0769  -723.0948   941.0425 H6            1 RES     
   27517 H6       -1009.9987  -722.4196   942.7184 H6            1 RES     
   27518 H6       -1009.2340  -720.1873   941.7293 H6            1 RES     
   27519 H6       -1009.3459  -720.9267   940.0954 H6            1 RES     
   27520 H6       -1011.7159  -720.3092   942.0001 H6            1 RES     
   27521 H6       -1011.2753  -719.5423   940.4272 H6            1 RES     
   27522 H6       -1012.2102  -722.4214   940.9553 H6            1 RES     
   27523 H6       -1011.4926  -721.9285   939.4125 H6            1 RES     
   27524 H6       -1013.7961  -722.0226   939.2861 H6            1 RES     
   27525 H6       -1014.3499  -720.1015   941.4699 H6            1 RES     
   27526 H6       -1015.5215  -720.4141   940.1286 H6            1 RES     
   27527 H6       -1015.4468  -722.7618   940.3821 H6            1 RES     
   27528 H6       -1014.2182  -722.6328   941.7509 H6            1 RES     
   27529 H6       -1017.2322  -722.1362   941.7986 H6            1 RES     
   27530 H6       -1016.1027  -721.9683   943.2121 H6            1 RES     
   27531 H6       -1016.3455  -724.5387   941.4415 H6            1 RES     
   27532 H6       -1015.2735  -724.3091   942.8595 H6            1 RES     
   27533 H6       -1017.2709  -724.1708   944.3531 H6            1 RES     
   27534 H6       -1017.0487  -725.7242   943.4696 H6            1 RES     
   27535 H6       -1018.7452  -725.1157   941.7874 H6            1 RES     
   27536 H6       -1019.0615  -723.5530   942.6532 H6            1 RES     
   27537 H6       -1019.4092  -725.1341   943.4591 H6            1 RES     
   27538 H6       -1012.3440  -720.5280   937.9048 H6            1 RES     
   27539 H6       -1013.4263  -719.3049   938.6283 H6            1 RES     
   27540 H6       -1014.1960  -718.8173   936.7144 H6            1 RES     
   27541 H6       -1013.9960  -719.8008   935.3133 H6            1 RES     
   27542 H6       -1016.6496  -719.4763   936.9050 H6            1 RES     
   27543 H6       -1016.6471  -721.1685   935.0836 H6            1 RES     
   27544 H6       -1017.9218  -719.9220   934.9565 H6            1 RES     
   27545 H6       -1016.7895  -718.7375   933.1353 H6            1 RES     
   27546 H6       -1015.3332  -719.7321   933.3233 H6            1 RES     
   27547 H6       -1016.4535  -720.5780   931.4070 H6            1 RES     
   27548 H6       -1016.6696  -721.7907   932.6837 H6            1 RES     
   27549 H6       -1019.0025  -720.9733   933.1021 H6            1 RES     
   27550 H6       -1018.7223  -721.5670   931.4350 H6            1 RES     
   27551 H6       -1018.8794  -718.5945   932.2749 H6            1 RES     
   27552 H6       -1020.1237  -719.5592   931.4185 H6            1 RES     
   27553 H6       -1018.5522  -719.8955   929.4829 H6            1 RES     
   27554 H6       -1018.8990  -718.1555   929.8123 H6            1 RES     
   27555 H6       -1017.3271  -718.8489   930.3105 H6            1 RES     
   27556 H6       -1016.1145  -717.2237   936.7427 H6            1 RES     
   27557 H6       -1017.2925  -717.5074   935.4302 H6            1 RES     
   27558 H6       -1015.1703  -717.5331   933.8366 H6            1 RES     
   27559 H6       -1014.2156  -717.0596   935.2489 H6            1 RES     
   27560 H6       -1014.7970  -715.2170   933.7470 H6            1 RES     
   27561 H6       -1016.5579  -715.5182   933.9395 H6            1 RES     
   27562 H6       -1014.6417  -714.6256   936.2111 H6            1 RES     
   27563 H6       -1016.4161  -714.9089   936.3487 H6            1 RES     
   27564 H6       -1016.8543  -713.0725   934.6907 H6            1 RES     
   27565 H6       -1016.0146  -712.5353   936.1890 H6            1 RES     
   27566 H6       -1014.6296  -713.0533   933.4788 H6            1 RES     
   27567 H6       -1013.8127  -712.5146   934.9893 H6            1 RES     
   27568 H6       -1014.2078  -710.6892   933.3462 H6            1 RES     
   27569 H6       -1015.9820  -710.9810   933.3933 H6            1 RES     
   27570 H6       -1016.0100  -710.2879   935.8169 H6            1 RES     
   27571 H6       -1015.2946  -709.0187   934.7701 H6            1 RES     
   27572 H6       -1014.2113  -710.0638   935.7620 H6            1 RES     
   27573 C0       -1011.0718  -727.6017   948.0677 C0            1 RES     
   27574 C0       -1010.3882  -728.9893   948.3999 C0            1 RES     
   27575 C0       -1009.7143  -729.4664   947.3267 C0            1 RES     
   27576 S1       -1008.9235  -730.9205   947.6043 S1            1 RES     
   27577 C0       -1009.4350  -731.0061   949.2225 C0            1 RES     
   27578 C0       -1010.2884  -729.9208   949.4680 C0            1 RES     
   27579 C0       -1009.9336  -728.6198   946.2135 C0            1 RES     
   27580 C0       -1010.6888  -727.6106   946.5837 C0            1 RES     
   27581 C0       -1011.1093  -726.8402   945.4471 C0            1 RES     
   27582 C0       -1010.6241  -727.3693   944.2649 C0            1 RES     
   27583 S1       -1009.5547  -728.8027   944.4802 S1            1 RES     
   27584 H2       -1010.7647  -729.8174   950.4084 H2            1 RES     
   27585 H2       -1011.8115  -726.0626   945.4972 H2            1 RES     
   27586 N3       -1008.7931  -732.6403   952.5929 N3            1 RES     
   27587 C0       -1009.2650  -731.8007   951.6290 C0            1 RES     
   27588 C0       -1008.9767  -732.0039   950.2531 C0            1 RES     
   27589 C0       -1008.1865  -733.1312   949.9414 C0            1 RES     
   27590 N3       -1007.8142  -733.4905   948.6854 N3            1 RES     
   27591 S1       -1006.9246  -734.8559   948.9508 S1            1 RES     
   27592 N3       -1006.9592  -735.0424   950.5883 N3            1 RES     
   27593 C0       -1007.7160  -733.9842   950.9826 C0            1 RES     
   27594 C0       -1008.0263  -733.7205   952.3052 C0            1 RES     
   27595 H4       -1009.8378  -730.9587   951.9583 H4            1 RES     
   27596 C5       -1002.0026  -732.0537   952.2870 C5            1 RES     
   27597 C5       -1003.1267  -732.3498   951.2942 C5            1 RES     
   27598 C5       -1004.4527  -731.6614   951.6599 C5            1 RES     
   27599 C5       -1004.3875  -730.1253   951.5769 C5            1 RES     
   27600 C5       -1005.7504  -729.5001   951.9115 C5            1 RES     
   27601 C5       -1005.7389  -727.9720   951.6873 C5            1 RES     
   27602 C5       -1007.0941  -727.2623   951.9482 C5            1 RES     
   27603 C5       -1008.2261  -727.9611   951.1932 C5            1 RES     
   27604 C5       -1009.5516  -727.1843   950.9922 C5            1 RES     
   27605 C5       -1010.4869  -726.9173   952.2341 C5            1 RES     
   27606 C5       -1011.1324  -728.2822   952.6016 C5            1 RES     
   27607 C5       -1012.1670  -728.5745   953.6948 C5            1 RES     
   27608 C5       -1012.4611  -730.1050   953.5598 C5            1 RES     
   27609 C5       -1013.4708  -730.7304   954.5206 C5            1 RES     
   27610 C5       -1014.9060  -730.3001   954.2438 C5            1 RES     
   27611 C5       -1009.4634  -726.1677   949.8446 C5            1 RES     
   27612 C0       -1010.7234  -726.2113   948.8862 C0            1 RES     
   27613 C5       -1010.8670  -724.8012   948.1668 C5            1 RES     
   27614 C5       -1012.2391  -724.0502   948.2861 C5            1 RES     
   27615 C5       -1013.2854  -724.4497   947.2058 C5            1 RES     
   27616 C5       -1013.0482  -723.8423   945.8027 C5            1 RES     
   27617 C5       -1013.9248  -724.4755   944.7044 C5            1 RES     
   27618 C5       -1015.4223  -724.1394   944.7816 C5            1 RES     
   27619 C5       -1015.7576  -722.6471   944.5937 C5            1 RES     
   27620 C5       -1015.2814  -722.0859   943.2501 C5            1 RES     
   27621 C5       -1012.0862  -722.4865   948.4330 C5            1 RES     
   27622 C5       -1011.0971  -721.7760   947.4682 C5            1 RES     
   27623 C5       -1011.1652  -720.2326   947.5017 C5            1 RES     
   27624 C5       -1010.8120  -719.5895   948.8576 C5            1 RES     
   27625 C5       -1010.8375  -718.0417   948.8174 C5            1 RES     
   27626 C5       -1009.7324  -717.4278   947.9298 C5            1 RES     
   27627 C5       -1009.7570  -715.8884   947.8735 C5            1 RES     
   27628 C5       -1009.4711  -715.2145   949.2155 C5            1 RES     
   27629 H6       -1001.7450  -730.9756   952.2935 H6            1 RES     
   27630 H6       -1001.0935  -732.6205   951.9951 H6            1 RES     
   27631 H6       -1002.3031  -732.3685   953.3090 H6            1 RES     
   27632 H6       -1002.8108  -732.0503   950.2709 H6            1 RES     
   27633 H6       -1003.2970  -733.4486   951.2929 H6            1 RES     
   27634 H6       -1005.2215  -732.0167   950.9376 H6            1 RES     
   27635 H6       -1004.7647  -731.9779   952.6785 H6            1 RES     
   27636 H6       -1004.0993  -729.8461   950.5386 H6            1 RES     
   27637 H6       -1003.6306  -729.7215   952.2799 H6            1 RES     
   27638 H6       -1006.4949  -729.9652   951.2307 H6            1 RES     
   27639 H6       -1006.0276  -729.7319   952.9621 H6            1 RES     
   27640 H6       -1004.9581  -727.4979   952.3200 H6            1 RES     
   27641 H6       -1005.4655  -727.7967   950.6224 H6            1 RES     
   27642 H6       -1007.3409  -727.2442   953.0314 H6            1 RES     
   27643 H6       -1006.9839  -726.2150   951.5930 H6            1 RES     
   27644 H6       -1008.4239  -728.9275   951.6934 H6            1 RES     
   27645 H6       -1007.8535  -728.2157   950.1748 H6            1 RES     
   27646 H6       -1010.1167  -727.8723   950.4763 H6            1 RES     
   27647 H6       -1009.9184  -726.4585   953.0702 H6            1 RES     
   27648 H6       -1011.3147  -726.2334   951.9436 H6            1 RES     
   27649 H6       -1011.7068  -728.5498   951.6949 H6            1 RES     
   27650 H6       -1010.2906  -728.9669   952.7995 H6            1 RES     
   27651 H6       -1013.0880  -727.9760   953.5247 H6            1 RES     
   27652 H6       -1011.7526  -728.3491   954.6992 H6            1 RES     
   27653 H6       -1012.7979  -730.3419   952.5227 H6            1 RES     
   27654 H6       -1011.5042  -730.6471   953.7252 H6            1 RES     
   27655 H6       -1013.1828  -730.5200   955.5705 H6            1 RES     
   27656 H6       -1013.4307  -731.8332   954.3635 H6            1 RES     
   27657 H6       -1015.1874  -730.5552   953.1978 H6            1 RES     
   27658 H6       -1015.0310  -729.2124   954.4078 H6            1 RES     
   27659 H6       -1015.5856  -730.8536   954.9265 H6            1 RES     
   27660 H6       -1008.5991  -726.3704   949.1757 H6            1 RES     
   27661 H6       -1009.2759  -725.1841   950.3269 H6            1 RES     
   27662 H6       -1010.1977  -724.1288   948.7364 H6            1 RES     
   27663 H6       -1010.4217  -724.7707   947.1526 H6            1 RES     
   27664 H6       -1012.6798  -724.3741   949.2560 H6            1 RES     
   27665 H6       -1013.3080  -725.5587   947.1625 H6            1 RES     
   27666 H6       -1014.2914  -724.1143   947.5387 H6            1 RES     
   27667 H6       -1013.2138  -722.7482   945.8141 H6            1 RES     
   27668 H6       -1011.9922  -723.9982   945.5127 H6            1 RES     
   27669 H6       -1013.5379  -724.1550   943.7157 H6            1 RES     
   27670 H6       -1013.8171  -725.5791   944.7360 H6            1 RES     
   27671 H6       -1015.8334  -724.4890   945.7517 H6            1 RES     
   27672 H6       -1015.9360  -724.7093   943.9766 H6            1 RES     
   27673 H6       -1015.3285  -722.0412   945.4181 H6            1 RES     
   27674 H6       -1016.8627  -722.5417   944.6383 H6            1 RES     
   27675 H6       -1015.7029  -722.6783   942.4100 H6            1 RES     
   27676 H6       -1015.6172  -721.0333   943.1469 H6            1 RES     
   27677 H6       -1014.1739  -722.0895   943.1825 H6            1 RES     
   27678 H6       -1011.7056  -722.2769   949.4560 H6            1 RES     
   27679 H6       -1013.0976  -722.0299   948.3642 H6            1 RES     
   27680 H6       -1011.2892  -722.0476   946.4217 H6            1 RES     
   27681 H6       -1010.0575  -722.0978   947.6909 H6            1 RES     
   27682 H6       -1010.4470  -719.8787   946.7355 H6            1 RES     
   27683 H6       -1012.1834  -719.9039   947.1969 H6            1 RES     
   27684 H6       -1009.8067  -719.9262   949.1918 H6            1 RES     
   27685 H6       -1011.5604  -719.9189   949.6068 H6            1 RES     
   27686 H6       -1011.8359  -717.6936   948.4728 H6            1 RES     
   27687 H6       -1010.6891  -717.6833   949.8595 H6            1 RES     
   27688 H6       -1009.8625  -717.7770   946.8863 H6            1 RES     
   27689 H6       -1008.7354  -717.7641   948.2894 H6            1 RES     
   27690 H6       -1008.9696  -715.5605   947.1592 H6            1 RES     
   27691 H6       -1010.7383  -715.5398   947.4855 H6            1 RES     
   27692 H6       -1010.2593  -715.4485   949.9588 H6            1 RES     
   27693 H6       -1009.4518  -714.1123   949.0748 H6            1 RES     
   27694 H6       -1008.4826  -715.5362   949.6065 H6            1 RES     
   27695 C0       -1007.3811  -735.7660   957.2490 C0            1 RES     
   27696 C0       -1006.9685  -737.2904   957.1544 C0            1 RES     
   27697 C0       -1006.5781  -737.6093   955.8976 C0            1 RES     
   27698 S1       -1006.0843  -739.2031   955.7165 S1            1 RES     
   27699 C0       -1006.3575  -739.5797   957.3507 C0            1 RES     
   27700 C0       -1006.9133  -738.4517   957.9711 C0            1 RES     
   27701 C0       -1006.7734  -736.4975   955.0432 C0            1 RES     
   27702 C0       -1007.2323  -735.4890   955.7489 C0            1 RES     
   27703 C0       -1007.6416  -734.4093   954.8952 C0            1 RES     
   27704 C0       -1007.4608  -734.7190   953.5595 C0            1 RES     
   27705 S1       -1006.7026  -736.3270   953.2692 S1            1 RES     
   27706 H2       -1007.2124  -738.4929   958.9864 H2            1 RES     
   27707 H2       -1008.1462  -733.5553   955.2363 H2            1 RES     
   27708 N3       -1005.5890  -742.0542   960.1309 N3            1 RES     
   27709 C0       -1006.0077  -740.9403   959.4668 C0            1 RES     
   27710 C0       -1005.9759  -740.8581   958.0492 C0            1 RES     
   27711 C0       -1005.4997  -741.9996   957.3688 C0            1 RES     
   27712 N3       -1005.4026  -742.1097   956.0184 N3            1 RES     
   27713 S1       -1004.7961  -743.6331   955.8246 S1            1 RES     
   27714 N3       -1004.6275  -744.1942   957.3655 N3            1 RES     
   27715 C0       -1005.0739  -743.1443   958.1045 C0            1 RES     
   27716 C0       -1005.1219  -743.1522   959.4876 C0            1 RES     
   27717 H4       -1006.3322  -740.1138   960.0643 H4            1 RES     
   27718 C5        -998.9515  -742.6101   958.6535 C5            1 RES     
   27719 C5       -1000.2468  -742.4603   957.8558 C5            1 RES     
   27720 C5       -1001.3263  -741.6573   958.6014 C5            1 RES     
   27721 C5       -1000.9473  -740.1813   958.8219 C5            1 RES     
   27722 C5       -1002.0803  -739.4248   959.5319 C5            1 RES     
   27723 C5       -1001.7758  -737.9134   959.6254 C5            1 RES     
   27724 C5       -1002.8943  -737.0600   960.2805 C5            1 RES     
   27725 C5       -1004.2483  -737.3502   959.6305 C5            1 RES     
   27726 C5       -1005.3919  -736.3281   959.8500 C5            1 RES     
   27727 C5       -1006.0546  -736.2042   961.2762 C5            1 RES     
   27728 C5       -1006.9154  -737.4826   961.4751 C5            1 RES     
   27729 C5       -1007.8155  -737.8404   962.6636 C5            1 RES     
   27730 C5       -1008.4465  -739.2192   962.2790 C5            1 RES     
   27731 C5       -1009.4133  -739.8682   963.2679 C5            1 RES     
   27732 C5       -1010.7481  -739.1399   963.3651 C5            1 RES     
   27733 C5       -1005.2590  -735.0997   958.9383 C5            1 RES     
   27734 C0       -1006.6266  -734.6930   958.2510 C0            1 RES     
   27735 C5       -1006.5702  -733.1496   957.8749 C5            1 RES     
   27736 C5       -1007.7171  -732.2202   958.4055 C5            1 RES     
   27737 C5       -1008.9724  -732.1621   957.4878 C5            1 RES     
   27738 C5       -1008.8208  -731.2899   956.2189 C5            1 RES     
   27739 C5       -1009.9648  -731.4805   955.2037 C5            1 RES     
   27740 C5       -1011.3278  -730.9155   955.6336 C5            1 RES     
   27741 C5       -1011.3604  -729.3863   955.8213 C5            1 RES     
   27742 C5       -1010.9790  -728.6143   954.5542 C5            1 RES     
   27743 C5       -1007.2136  -730.7878   958.8356 C5            1 RES     
   27744 C5       -1006.2492  -730.0529   957.8641 C5            1 RES     
   27745 C5       -1005.9801  -728.5743   958.2234 C5            1 RES     
   27746 C5       -1005.3014  -728.3438   959.5883 C5            1 RES     
   27747 C5       -1005.0011  -726.8509   959.8696 C5            1 RES     
   27748 C5       -1003.9339  -726.2470   958.9303 C5            1 RES     
   27749 C5       -1003.6370  -724.7585   959.1944 C5            1 RES     
   27750 C5       -1003.0187  -724.4835   960.5651 C5            1 RES     
   27751 H6        -998.4713  -741.6266   958.8298 H6            1 RES     
   27752 H6        -998.2378  -743.2415   958.0835 H6            1 RES     
   27753 H6        -999.1579  -743.1010   959.6283 H6            1 RES     
   27754 H6       -1000.0289  -741.9864   956.8737 H6            1 RES     
   27755 H6       -1000.6464  -743.4801   957.6635 H6            1 RES     
   27756 H6       -1002.2513  -741.6906   957.9831 H6            1 RES     
   27757 H6       -1001.5447  -742.1471   959.5748 H6            1 RES     
   27758 H6       -1000.7627  -739.7183   957.8265 H6            1 RES     
   27759 H6       -1000.0262  -740.0950   959.4338 H6            1 RES     
   27760 H6       -1002.9992  -739.5771   958.9265 H6            1 RES     
   27761 H6       -1002.2424  -739.8473   960.5465 H6            1 RES     
   27762 H6       -1000.8271  -737.7475   960.1796 H6            1 RES     
   27763 H6       -1001.6316  -737.5409   958.5863 H6            1 RES     
   27764 H6       -1002.9687  -737.2569   961.3715 H6            1 RES     
   27765 H6       -1002.6165  -735.9943   960.1314 H6            1 RES     
   27766 H6       -1004.5719  -738.3577   959.9520 H6            1 RES     
   27767 H6       -1004.0932  -737.4168   958.5295 H6            1 RES     
   27768 H6       -1006.1609  -736.7639   959.3231 H6            1 RES     
   27769 H6       -1005.2841  -736.0640   962.0632 H6            1 RES     
   27770 H6       -1006.7508  -735.3368   961.2953 H6            1 RES     
   27771 H6       -1007.6612  -737.4224   960.6603 H6            1 RES     
   27772 H6       -1006.2196  -738.3313   961.3642 H6            1 RES     
   27773 H6       -1008.6021  -737.0669   962.7989 H6            1 RES     
   27774 H6       -1007.2188  -737.9363   963.5943 H6            1 RES     
   27775 H6       -1008.9755  -739.1402   961.2997 H6            1 RES     
   27776 H6       -1007.6138  -739.9440   962.1438 H6            1 RES     
   27777 H6       -1008.9351  -739.9670   964.2634 H6            1 RES     
   27778 H6       -1009.6334  -740.8916   962.8849 H6            1 RES     
   27779 H6       -1011.2289  -739.0860   962.3630 H6            1 RES     
   27780 H6       -1010.6122  -738.1177   963.7679 H6            1 RES     
   27781 H6       -1011.4219  -739.7120   964.0383 H6            1 RES     
   27782 H6       -1004.5665  -735.2857   958.0890 H6            1 RES     
   27783 H6       -1004.7966  -734.3072   959.5655 H6            1 RES     
   27784 H6       -1005.6961  -732.7597   958.4302 H6            1 RES     
   27785 H6       -1006.2835  -732.9575   956.8219 H6            1 RES     
   27786 H6       -1008.0687  -732.6829   959.3554 H6            1 RES     
   27787 H6       -1009.2377  -733.2074   957.2249 H6            1 RES     
   27788 H6       -1009.8230  -731.7445   958.0688 H6            1 RES     
   27789 H6       -1008.7452  -730.2183   956.4842 H6            1 RES     
   27790 H6       -1007.8772  -731.5549   955.7061 H6            1 RES     
   27791 H6       -1009.6688  -731.0072   954.2455 H6            1 RES     
   27792 H6       -1010.0920  -732.5613   954.9888 H6            1 RES     
   27793 H6       -1011.6561  -731.4080   956.5728 H6            1 RES     
   27794 H6       -1012.0644  -731.1788   954.8433 H6            1 RES     
   27795 H6       -1010.6947  -729.0784   956.6538 H6            1 RES     
   27796 H6       -1012.3983  -729.1027   956.0977 H6            1 RES     
   27797 H6       -1011.6368  -728.9070   953.7079 H6            1 RES     
   27798 H6       -1011.0936  -727.5253   954.7338 H6            1 RES     
   27799 H6       -1009.9203  -728.7956   954.2760 H6            1 RES     
   27800 H6       -1006.6502  -730.8972   959.7873 H6            1 RES     
   27801 H6       -1008.1029  -730.1581   959.0565 H6            1 RES     
   27802 H6       -1006.6472  -730.0302   956.8409 H6            1 RES     
   27803 H6       -1005.2811  -730.5953   957.8129 H6            1 RES     
   27804 H6       -1005.3241  -728.1800   957.4220 H6            1 RES     
   27805 H6       -1006.9381  -728.0095   958.1930 H6            1 RES     
   27806 H6       -1004.3531  -728.9209   959.6477 H6            1 RES     
   27807 H6       -1005.9837  -728.7054   960.3841 H6            1 RES     
   27808 H6       -1005.9418  -726.2616   959.8012 H6            1 RES     
   27809 H6       -1004.6273  -726.7820   960.9146 H6            1 RES     
   27810 H6       -1004.2883  -726.3100   957.8824 H6            1 RES     
   27811 H6       -1002.9899  -726.8283   959.0158 H6            1 RES     
   27812 H6       -1002.9120  -724.4134   958.4242 H6            1 RES     
   27813 H6       -1004.5674  -724.1614   959.0811 H6            1 RES     
   27814 H6       -1003.7201  -724.7455   961.3823 H6            1 RES     
   27815 H6       -1002.7853  -723.4004   960.6506 H6            1 RES     
   27816 H6       -1002.0751  -725.0568   960.6853 H6            1 RES     
   27817 C0       -1004.2057  -746.3940   963.6940 C0            1 RES     
   27818 C0       -1004.1470  -747.9003   963.2137 C0            1 RES     
   27819 C0       -1004.0239  -747.9748   961.8673 C0            1 RES     
   27820 S1       -1003.9143  -749.5410   961.2742 S1            1 RES     
   27821 C0       -1004.0172  -750.2413   962.8190 C0            1 RES     
   27822 C0       -1004.2213  -749.2135   963.7509 C0            1 RES     
   27823 C0       -1004.1010  -746.6754   961.3107 C0            1 RES     
   27824 C0       -1004.2245  -745.7991   962.2816 C0            1 RES     
   27825 C0       -1004.5150  -744.4929   961.7602 C0            1 RES     
   27826 C0       -1004.6039  -744.5032   960.3801 C0            1 RES     
   27827 S1       -1004.2582  -746.1034   959.6286 S1            1 RES     
   27828 H2       -1004.3689  -749.4417   964.7746 H2            1 RES     
   27829 H2       -1004.7694  -743.6696   962.3584 H2            1 RES     
   27830 N3       -1003.3933  -753.4005   964.8370 N3            1 RES     
   27831 C0       -1003.6576  -752.1052   964.5065 C0            1 RES     
   27832 C0       -1003.8188  -751.6954   963.1562 C0            1 RES     
   27833 C0       -1003.7034  -752.7078   962.1792 C0            1 RES     
   27834 N3       -1003.8325  -752.5093   960.8416 N3            1 RES     
   27835 S1       -1003.6010  -754.0249   960.2292 S1            1 RES     
   27836 N3       -1003.3306  -754.9566   961.5620 N3            1 RES     
   27837 C0       -1003.4281  -754.0509   962.5709 C0            1 RES     
   27838 C0       -1003.2718  -754.3786   963.9064 C0            1 RES     
   27839 H4       -1003.7061  -751.4006   965.3106 H4            1 RES     
   27840 C5        -997.3207  -754.7430   962.0318 C5            1 RES     
   27841 C5        -998.6573  -754.1835   961.5450 C5            1 RES     
   27842 C5        -999.4180  -753.4044   962.6314 C5            1 RES     
   27843 C5        -998.7040  -752.1128   963.0708 C5            1 RES     
   27844 C5        -999.5317  -751.3603   964.1239 C5            1 RES     
   27845 C5        -998.9007  -749.9918   964.4628 C5            1 RES     
   27846 C5        -999.7018  -749.1362   965.4800 C5            1 RES     
   27847 C5       -1001.1673  -749.0219   965.0568 C5            1 RES     
   27848 C5       -1002.0208  -747.8972   965.6950 C5            1 RES     
   27849 C5       -1002.4236  -748.0016   967.2166 C5            1 RES     
   27850 C5       -1003.4986  -749.1196   967.3126 C5            1 RES     
   27851 C5       -1004.2688  -749.5862   968.5536 C5            1 RES     
   27852 C5       -1005.2296  -750.7017   968.0247 C5            1 RES     
   27853 C5       -1006.1558  -751.3874   969.0276 C5            1 RES     
   27854 C5       -1007.2748  -750.4809   969.5252 C5            1 RES     
   27855 C5       -1001.7646  -746.5302   965.0442 C5            1 RES     
   27856 C0       -1003.0999  -745.7389   964.7295 C0            1 RES     
   27857 C5       -1002.7711  -744.1848   964.6718 C5            1 RES     
   27858 C5       -1003.6016  -743.2220   965.5904 C5            1 RES     
   27859 C5       -1004.9370  -742.7286   964.9621 C5            1 RES     
   27860 C5       -1004.7916  -741.6204   963.8922 C5            1 RES     
   27861 C5       -1006.0870  -741.3610   963.0983 C5            1 RES     
   27862 C5       -1007.2189  -740.6846   963.8876 C5            1 RES     
   27863 C5       -1006.8959  -739.2625   964.3853 C5            1 RES     
   27864 C5       -1006.5499  -738.2906   963.2527 C5            1 RES     
   27865 C5       -1002.7458  -742.0437   966.1983 C5            1 RES     
   27866 C5       -1001.8009  -741.2797   965.2301 C5            1 RES     
   27867 C5       -1001.1720  -739.9993   965.8243 C5            1 RES     
   27868 C5       -1000.2658  -740.2222   967.0514 C5            1 RES     
   27869 C5        -999.6153  -738.9152   967.5677 C5            1 RES     
   27870 C5        -998.5944  -738.3020   966.5840 C5            1 RES     
   27871 C5        -997.9505  -736.9944   967.0836 C5            1 RES     
   27872 C5        -997.0922  -737.1656   968.3369 C5            1 RES     
   27873 H6        -996.6208  -753.9293   962.3091 H6            1 RES     
   27874 H6        -996.8506  -755.3358   961.2191 H6            1 RES     
   27875 H6        -997.4810  -755.4075   962.9074 H6            1 RES     
   27876 H6        -998.4907  -753.5356   960.6567 H6            1 RES     
   27877 H6        -999.2895  -755.0423   961.2296 H6            1 RES     
   27878 H6       -1000.4097  -753.1273   962.2086 H6            1 RES     
   27879 H6        -999.5898  -754.0653   963.5082 H6            1 RES     
   27880 H6        -998.5739  -751.4664   962.1740 H6            1 RES     
   27881 H6        -997.7057  -752.3371   963.4991 H6            1 RES     
   27882 H6       -1000.5409  -751.2011   963.6880 H6            1 RES     
   27883 H6        -999.6285  -751.9767   965.0431 H6            1 RES     
   27884 H6        -997.8673  -750.1311   964.8466 H6            1 RES     
   27885 H6        -998.8354  -749.4143   963.5133 H6            1 RES     
   27886 H6        -999.6545  -749.5704   966.5017 H6            1 RES     
   27887 H6        -999.2277  -748.1311   965.5005 H6            1 RES     
   27888 H6       -1001.6476  -750.0043   965.2225 H6            1 RES     
   27889 H6       -1001.1944  -748.8511   963.9564 H6            1 RES     
   27890 H6       -1002.9343  -748.0538   965.2480 H6            1 RES     
   27891 H6       -1001.5334  -748.1896   967.8529 H6            1 RES     
   27892 H6       -1002.9077  -747.0555   967.5451 H6            1 RES     
   27893 H6       -1004.3263  -748.7379   966.6856 H6            1 RES     
   27894 H6       -1003.0244  -750.0259   966.8998 H6            1 RES     
   27895 H6       -1004.8431  -748.7415   968.9918 H6            1 RES     
   27896 H6       -1003.5756  -750.0033   969.3131 H6            1 RES     
   27897 H6       -1005.8682  -750.3010   967.2021 H6            1 RES     
   27898 H6       -1004.6004  -751.5079   967.5876 H6            1 RES     
   27899 H6       -1005.5681  -751.8020   969.8715 H6            1 RES     
   27900 H6       -1006.6436  -752.2357   968.4938 H6            1 RES     
   27901 H6       -1007.8756  -750.1071   968.6664 H6            1 RES     
   27902 H6       -1006.8656  -749.6238   970.0940 H6            1 RES     
   27903 H6       -1007.9482  -751.0695   970.1844 H6            1 RES     
   27904 H6       -1001.2610  -746.6275   964.0580 H6            1 RES     
   27905 H6       -1001.0561  -746.0030   965.7189 H6            1 RES     
   27906 H6       -1001.7617  -744.0972   965.1165 H6            1 RES     
   27907 H6       -1002.6087  -743.8013   963.6449 H6            1 RES     
   27908 H6       -1003.8997  -743.8281   966.4757 H6            1 RES     
   27909 H6       -1005.4553  -743.6185   964.5478 H6            1 RES     
   27910 H6       -1005.5833  -742.3187   965.7680 H6            1 RES     
   27911 H6       -1004.4504  -740.6728   964.3506 H6            1 RES     
   27912 H6       -1004.0128  -741.9170   963.1649 H6            1 RES     
   27913 H6       -1005.8415  -740.7330   962.2179 H6            1 RES     
   27914 H6       -1006.4726  -742.3204   962.6964 H6            1 RES     
   27915 H6       -1007.5026  -741.3208   964.7520 H6            1 RES     
   27916 H6       -1008.1033  -740.6195   963.2166 H6            1 RES     
   27917 H6       -1006.0644  -739.2826   965.1194 H6            1 RES     
   27918 H6       -1007.7968  -738.8754   964.9075 H6            1 RES     
   27919 H6       -1007.3725  -738.2541   962.5068 H6            1 RES     
   27920 H6       -1006.4013  -737.2727   963.6688 H6            1 RES     
   27921 H6       -1005.6073  -738.5832   962.7456 H6            1 RES     
   27922 H6       -1002.0846  -742.4730   966.9816 H6            1 RES     
   27923 H6       -1003.4374  -741.3388   966.7092 H6            1 RES     
   27924 H6       -1002.3316  -740.9452   964.3287 H6            1 RES     
   27925 H6       -1000.9896  -741.9553   964.8847 H6            1 RES     
   27926 H6       -1000.5727  -739.5471   965.0094 H6            1 RES     
   27927 H6       -1001.9810  -739.2848   966.0940 H6            1 RES     
   27928 H6        -999.4646  -740.9538   966.8091 H6            1 RES     
   27929 H6       -1000.8844  -740.6373   967.8728 H6            1 RES     
   27930 H6       -1000.4078  -738.1712   967.8025 H6            1 RES     
   27931 H6        -999.0852  -739.1631   968.5133 H6            1 RES     
   27932 H6        -999.1048  -738.0511   965.6332 H6            1 RES     
   27933 H6        -997.7944  -739.0430   966.3667 H6            1 RES     
   27934 H6        -997.2905  -736.6087   966.2753 H6            1 RES     
   27935 H6        -998.7381  -736.2341   967.2748 H6            1 RES     
   27936 H6        -997.7048  -737.4873   969.2027 H6            1 RES     
   27937 H6        -996.6228  -736.1919   968.5947 H6            1 RES     
   27938 H6        -996.2858  -737.9072   968.1546 H6            1 RES     
   27939 C0       -1002.4587  -758.6357   967.1091 C0            1 RES     
   27940 C0       -1002.7948  -759.9711   966.3302 C0            1 RES     
   27941 C0       -1002.8906  -759.7439   964.9987 C0            1 RES     
   27942 S1       -1003.2071  -761.1187   964.0895 S1            1 RES     
   27943 C0       -1003.2280  -762.1367   965.4499 C0            1 RES     
   27944 C0       -1003.0678  -761.3404   966.5929 C0            1 RES     
   27945 C0       -1002.7697  -758.3567   964.7437 C0            1 RES     
   27946 C0       -1002.5582  -757.7284   965.8778 C0            1 RES     
   27947 C0       -1002.6367  -756.3057   965.6989 C0            1 RES     
   27948 C0       -1002.9285  -755.9721   964.3888 C0            1 RES     
   27949 S1       -1003.0477  -757.3831   963.2753 S1            1 RES     
   27950 H2       -1003.1079  -761.7757   967.5577 H2            1 RES     
   27951 H2       -1002.6180  -755.6167   966.4895 H2            1 RES     
   27952 N3       -1003.0026  -765.7439   966.6247 N3            1 RES     
   27953 C0       -1003.0298  -764.3815   966.6217 C0            1 RES     
   27954 C0       -1003.2973  -763.6410   965.4396 C0            1 RES     
   27955 C0       -1003.5465  -764.3964   964.2734 C0            1 RES     
   27956 N3       -1003.8264  -763.8663   963.0544 N3            1 RES     
   27957 S1       -1004.0172  -765.2095   962.1135 S1            1 RES     
   27958 N3       -1003.7583  -766.4637   963.1516 N3            1 RES     
   27959 C0       -1003.5099  -765.8209   964.3233 C0            1 RES     
   27960 C0       -1003.2318  -766.4786   965.5088 C0            1 RES     
   27961 H4       -1002.8073  -763.8908   967.5464 H4            1 RES     
   27962 C5        -997.8396  -767.4235   962.4929 C5            1 RES     
   27963 C5        -999.0828  -766.5393   962.3959 C5            1 RES     
   27964 C5        -999.4903  -765.9198   963.7435 C5            1 RES     
   27965 C5        -998.4600  -764.9152   964.2912 C5            1 RES     
   27966 C5        -998.9428  -764.3014   965.6142 C5            1 RES     
   27967 C5        -997.9911  -763.1848   966.0971 C5            1 RES     
   27968 C5        -998.4315  -762.4686   967.4016 C5            1 RES     
   27969 C5        -999.8848  -762.0023   967.2997 C5            1 RES     
   27970 C5       -1000.3744  -760.9299   968.3051 C5            1 RES     
   27971 C5       -1000.5610  -761.3206   969.8220 C5            1 RES     
   27972 C5       -1001.8238  -762.2233   969.8929 C5            1 RES     
   27973 C5       -1002.4839  -762.8290   971.1371 C5            1 RES     
   27974 C5       -1003.7282  -763.6010   970.5867 C5            1 RES     
   27975 C5       -1004.6211  -764.3322   971.5877 C5            1 RES     
   27976 C5       -1005.4344  -763.3884   972.4647 C5            1 RES     
   27977 C5        -999.9310  -759.5140   967.9093 C5            1 RES     
   27978 C0       -1001.0978  -758.4494   968.0245 C0            1 RES     
   27979 C5       -1000.4567  -757.0083   968.2223 C5            1 RES     
   27980 C5       -1000.9173  -756.1612   969.4596 C5            1 RES     
   27981 C5       -1002.1942  -755.3067   969.2130 C5            1 RES     
   27982 C5       -1001.9750  -754.0192   968.3835 C5            1 RES     
   27983 C5       -1003.2878  -753.3559   967.9226 C5            1 RES     
   27984 C5       -1004.1197  -752.6989   969.0352 C5            1 RES     
   27985 C5       -1003.4304  -751.5149   969.7406 C5            1 RES     
   27986 C5       -1003.0558  -750.3779   968.7846 C5            1 RES     
   27987 C5        -999.7493  -755.3296   970.1188 C5            1 RES     
   27988 C5        -998.8166  -754.5351   969.1634 C5            1 RES     
   27989 C5        -997.8479  -753.5631   969.8739 C5            1 RES     
   27990 C5        -996.8392  -754.2263   970.8327 C5            1 RES     
   27991 C5        -995.8554  -753.2140   971.4696 C5            1 RES     
   27992 C5        -994.8838  -752.5732   970.4541 C5            1 RES     
   27993 C5        -993.9089  -751.5553   971.0763 C5            1 RES     
   27994 C5        -992.9315  -752.1668   972.0800 C5            1 RES     
   27995 H6        -996.9489  -766.8345   962.7904 H6            1 RES     
   27996 H6        -997.6324  -767.8793   961.5018 H6            1 RES     
   27997 H6        -998.0071  -768.2384   963.2290 H6            1 RES     
   27998 H6        -998.9146  -765.7384   961.6430 H6            1 RES     
   27999 H6        -999.9233  -767.1742   962.0396 H6            1 RES     
   28000 H6       -1000.4512  -765.3810   963.5842 H6            1 RES     
   28001 H6        -999.6680  -766.7295   964.4837 H6            1 RES     
   28002 H6        -998.3286  -764.1072   963.5368 H6            1 RES     
   28003 H6        -997.4806  -765.4060   964.4652 H6            1 RES     
   28004 H6        -999.9478  -763.8689   965.4218 H6            1 RES     
   28005 H6        -999.0323  -765.0917   966.3899 H6            1 RES     
   28006 H6        -996.9662  -763.5900   966.2389 H6            1 RES     
   28007 H6        -997.9448  -762.4189   965.2905 H6            1 RES     
   28008 H6        -998.3278  -763.1345   968.2850 H6            1 RES     
   28009 H6        -997.7559  -761.5963   967.5348 H6            1 RES     
   28010 H6       -1000.5341  -762.8962   967.3510 H6            1 RES     
   28011 H6       -1000.0370  -761.5730   966.2832 H6            1 RES     
   28012 H6       -1001.3561  -760.8134   968.0194 H6            1 RES     
   28013 H6        -999.6475  -761.8072   970.2238 H6            1 RES     
   28014 H6       -1000.7777  -760.4098   970.4229 H6            1 RES     
   28015 H6       -1002.6341  -761.5647   969.5275 H6            1 RES     
   28016 H6       -1001.6205  -763.0742   969.2212 H6            1 RES     
   28017 H6       -1002.7933  -762.0255   971.8400 H6            1 RES     
   28018 H6       -1001.7915  -763.5294   971.6484 H6            1 RES     
   28019 H6       -1004.3808  -762.9109   970.0011 H6            1 RES     
   28020 H6       -1003.3575  -764.3777   969.8822 H6            1 RES     
   28021 H6       -1004.0175  -765.0317   972.2008 H6            1 RES     
   28022 H6       -1005.3523  -764.9305   970.9962 H6            1 RES     
   28023 H6       -1006.0616  -762.7220   971.8315 H6            1 RES     
   28024 H6       -1004.7721  -762.7761   973.1067 H6            1 RES     
   28025 H6       -1006.1132  -763.9893   973.1071 H6            1 RES     
   28026 H6        -999.6112  -759.4609   966.8461 H6            1 RES     
   28027 H6        -999.0345  -759.2947   968.5285 H6            1 RES     
   28028 H6        -999.3976  -757.2070   968.4734 H6            1 RES     
   28029 H6       -1000.3697  -756.4265   967.2833 H6            1 RES     
   28030 H6       -1001.2040  -756.8984   970.2433 H6            1 RES     
   28031 H6       -1002.9461  -755.9678   968.7336 H6            1 RES     
   28032 H6       -1002.6117  -754.9934   970.1942 H6            1 RES     
   28033 H6       -1001.3753  -753.2824   968.9509 H6            1 RES     
   28034 H6       -1001.3937  -754.2662   967.4754 H6            1 RES     
   28035 H6       -1003.0465  -752.5897   967.1581 H6            1 RES     
   28036 H6       -1003.9245  -754.1096   967.4155 H6            1 RES     
   28037 H6       -1004.4019  -753.4625   969.7901 H6            1 RES     
   28038 H6       -1005.0589  -752.3225   968.5740 H6            1 RES     
   28039 H6       -1002.5232  -751.8541   970.2818 H6            1 RES     
   28040 H6       -1004.1405  -751.1113   970.4936 H6            1 RES     
   28041 H6       -1003.9526  -750.0217   968.2338 H6            1 RES     
   28042 H6       -1002.6333  -749.5302   969.3627 H6            1 RES     
   28043 H6       -1002.2830  -750.7020   968.0574 H6            1 RES     
   28044 H6        -999.0868  -756.0417   970.6566 H6            1 RES     
   28045 H6       -1000.1910  -754.6564   970.8854 H6            1 RES     
   28046 H6        -999.3907  -753.9085   968.4680 H6            1 RES     
   28047 H6        -998.2285  -755.2406   968.5386 H6            1 RES     
   28048 H6        -997.2929  -753.0423   969.0685 H6            1 RES     
   28049 H6        -998.4365  -752.8028   970.4334 H6            1 RES     
   28050 H6        -996.2576  -755.0079   970.2974 H6            1 RES     
   28051 H6        -997.4040  -754.7096   971.6555 H6            1 RES     
   28052 H6        -996.4271  -752.4202   971.9985 H6            1 RES     
   28053 H6        -995.2568  -753.7683   972.2252 H6            1 RES     
   28054 H6        -995.4635  -752.0182   969.6902 H6            1 RES     
   28055 H6        -994.3017  -753.3697   969.9411 H6            1 RES     
   28056 H6        -993.3084  -751.1103   970.2521 H6            1 RES     
   28057 H6        -994.4787  -750.7364   971.5658 H6            1 RES     
   28058 H6        -993.4639  -752.5726   972.9634 H6            1 RES     
   28059 H6        -992.2320  -751.3799   972.4356 H6            1 RES     
   28060 H6        -992.3381  -752.9733   971.5993 H6            1 RES     
   28061 C0       -1002.8832  -771.4493   967.5612 C0            1 RES     
   28062 C0       -1003.6082  -772.4813   966.6061 C0            1 RES     
   28063 C0       -1003.8489  -771.9312   965.3924 C0            1 RES     
   28064 S1       -1004.5826  -772.9734   964.3004 S1            1 RES     
   28065 C0       -1004.6193  -774.2656   965.4032 C0            1 RES     
   28066 C0       -1004.1256  -773.8042   966.6319 C0            1 RES     
   28067 C0       -1003.4733  -770.5664   965.4066 C0            1 RES     
   28068 C0       -1002.9673  -770.2725   966.5828 C0            1 RES     
   28069 C0       -1002.7655  -768.8570   966.7156 C0            1 RES     
   28070 C0       -1003.1695  -768.1759   965.5817 C0            1 RES     
   28071 S1       -1003.7505  -769.2387   964.2484 S1            1 RES     
   28072 H2       -1004.1149  -774.4424   967.4773 H2            1 RES     
   28073 H2       -1002.4834  -768.3897   967.6113 H2            1 RES     
   28074 N3       -1004.9990  -778.0306   965.7537 N3            1 RES     
   28075 C0       -1004.7346  -776.7234   966.0333 C0            1 RES     
   28076 C0       -1005.0093  -775.6882   965.1004 C0            1 RES     
   28077 C0       -1005.5836  -776.0894   963.8749 C0            1 RES     
   28078 N3       -1005.9206  -775.2443   962.8662 N3            1 RES     
   28079 S1       -1006.5309  -776.2708   961.7260 S1            1 RES     
   28080 N3       -1006.3955  -777.7610   962.4177 N3            1 RES     
   28081 C0       -1005.8453  -777.4687   963.6258 C0            1 RES     
   28082 C0       -1005.5421  -778.4274   964.5768 C0            1 RES     
   28083 H4       -1004.2783  -776.5132   966.9783 H4            1 RES     
   28084 C5       -1000.9825  -779.5580   960.4543 C5            1 RES     
   28085 C5       -1002.0084  -778.4725   960.7796 C5            1 RES     
   28086 C5       -1002.0705  -778.1293   962.2777 C5            1 RES     
   28087 C5       -1000.7799  -777.4799   962.8103 C5            1 RES     
   28088 C5       -1000.9196  -777.1232   964.2981 C5            1 RES     
   28089 C5        -999.6906  -776.3378   964.8064 C5            1 RES     
   28090 C5        -999.7702  -775.8862   966.2890 C5            1 RES     
   28091 C5       -1001.0890  -775.1620   966.5650 C5            1 RES     
   28092 C5       -1001.1841  -774.2904   967.8425 C5            1 RES     
   28093 C5       -1001.2237  -774.9914   969.2552 C5            1 RES     
   28094 C5       -1002.6256  -775.6496   969.3818 C5            1 RES     
   28095 C5       -1003.2088  -776.4083   970.5798 C5            1 RES     
   28096 C5       -1004.6566  -776.7973   970.1330 C5            1 RES     
   28097 C5       -1005.5272  -777.5774   971.1165 C5            1 RES     
   28098 C5       -1005.9814  -776.7415   972.3067 C5            1 RES     
   28099 C5       -1000.5118  -772.9212   967.6656 C5            1 RES     
   28100 C0       -1001.3941  -771.7270   968.2168 C0            1 RES     
   28101 C5       -1000.4378  -770.5094   968.5769 C5            1 RES     
   28102 C5       -1000.5188  -769.9133   970.0257 C5            1 RES     
   28103 C5       -1001.6057  -768.8147   970.2078 C5            1 RES     
   28104 C5       -1001.2414  -767.4258   969.6315 C5            1 RES     
   28105 C5       -1002.4354  -766.4528   969.5759 C5            1 RES     
   28106 C5       -1002.9340  -765.9437   970.9375 C5            1 RES     
   28107 C5       -1001.9111  -765.1006   971.7234 C5            1 RES     
   28108 C5       -1001.4477  -763.8528   970.9651 C5            1 RES     
   28109 C5        -999.1158  -769.4799   970.6037 C5            1 RES     
   28110 C5        -998.1864  -768.6571   969.6692 C5            1 RES     
   28111 C5        -996.9383  -768.0668   970.3632 C5            1 RES     
   28112 C5        -995.9643  -769.1048   970.9553 C5            1 RES     
   28113 C5        -994.7040  -768.4612   971.5840 C5            1 RES     
   28114 C5        -993.7788  -767.7778   970.5530 C5            1 RES     
   28115 C5        -992.5279  -767.1238   971.1704 C5            1 RES     
   28116 C5        -991.5665  -768.1177   971.8221 C5            1 RES     
   28117 H6        -999.9526  -779.2219   960.6889 H6            1 RES     
   28118 H6       -1001.0262  -779.7943   959.3702 H6            1 RES     
   28119 H6       -1001.2096  -780.4821   961.0273 H6            1 RES     
   28120 H6       -1001.7860  -777.5578   960.1876 H6            1 RES     
   28121 H6       -1003.0084  -778.8472   960.4696 H6            1 RES     
   28122 H6       -1002.9068  -777.4083   962.4189 H6            1 RES     
   28123 H6       -1002.3057  -779.0477   962.8577 H6            1 RES     
   28124 H6       -1000.5918  -776.5518   962.2253 H6            1 RES     
   28125 H6        -999.9134  -778.1617   962.6896 H6            1 RES     
   28126 H6       -1001.8261  -776.4883   964.3942 H6            1 RES     
   28127 H6       -1001.0604  -778.0469   964.8992 H6            1 RES     
   28128 H6        -998.7666  -776.9380   964.6634 H6            1 RES     
   28129 H6        -999.6014  -775.4224   964.1790 H6            1 RES     
   28130 H6        -999.6818  -776.7504   966.9818 H6            1 RES     
   28131 H6        -998.9117  -775.2026   966.4649 H6            1 RES     
   28132 H6       -1001.8994  -775.9145   966.5569 H6            1 RES     
   28133 H6       -1001.2944  -774.4837   965.7057 H6            1 RES     
   28134 H6       -1002.1494  -773.9393   967.7803 H6            1 RES     
   28135 H6       -1000.3862  -775.7117   969.3666 H6            1 RES     
   28136 H6       -1001.1497  -774.2260   970.0590 H6            1 RES     
   28137 H6       -1003.3213  -774.7916   969.3205 H6            1 RES     
   28138 H6       -1002.7104  -776.3387   968.5247 H6            1 RES     
   28139 H6       -1003.2320  -775.7534   971.4775 H6            1 RES     
   28140 H6       -1002.6142  -777.3202   970.7952 H6            1 RES     
   28141 H6       -1005.2258  -775.8845   969.8364 H6            1 RES     
   28142 H6       -1004.5686  -777.4369   969.2274 H6            1 RES     
   28143 H6       -1005.0033  -778.4971   971.4469 H6            1 RES     
   28144 H6       -1006.4485  -777.8805   970.5672 H6            1 RES     
   28145 H6       -1006.5381  -775.8446   971.9547 H6            1 RES     
   28146 H6       -1005.1162  -776.4250   972.9205 H6            1 RES     
   28147 H6       -1006.6704  -777.3494   972.9313 H6            1 RES     
   28148 H6       -1000.3486  -772.6739   966.5943 H6            1 RES     
   28149 H6        -999.5077  -773.0157   968.1327 H6            1 RES     
   28150 H6        -999.4204  -770.9444   968.5744 H6            1 RES     
   28151 H6       -1000.3681  -769.7457   967.7772 H6            1 RES     
   28152 H6       -1000.8374  -770.7537   970.6831 H6            1 RES     
   28153 H6       -1002.5438  -769.2008   969.7573 H6            1 RES     
   28154 H6       -1001.7970  -768.6753   971.2938 H6            1 RES     
   28155 H6       -1000.4210  -766.9617   970.2112 H6            1 RES     
   28156 H6       -1000.8669  -767.5479   968.5978 H6            1 RES     
   28157 H6       -1002.1516  -765.5813   968.9515 H6            1 RES     
   28158 H6       -1003.2862  -766.9409   969.0578 H6            1 RES     
   28159 H6       -1003.2582  -766.8031   971.5610 H6            1 RES     
   28160 H6       -1003.8287  -765.3099   970.7515 H6            1 RES     
   28161 H6       -1001.0277  -765.7122   971.9998 H6            1 RES     
   28162 H6       -1002.3994  -764.7696   972.6647 H6            1 RES     
   28163 H6       -1002.3189  -763.2246   970.6808 H6            1 RES     
   28164 H6       -1000.7731  -763.2541   971.6116 H6            1 RES     
   28165 H6       -1000.8781  -764.1250   970.0526 H6            1 RES     
   28166 H6        -998.5488  -770.4040   970.8480 H6            1 RES     
   28167 H6        -999.2853  -768.9414   971.5615 H6            1 RES     
   28168 H6        -998.7096  -767.7927   969.2392 H6            1 RES     
   28169 H6        -997.8615  -769.2858   968.8129 H6            1 RES     
   28170 H6        -996.4100  -767.4751   969.5895 H6            1 RES     
   28171 H6        -997.2616  -767.3702   971.1681 H6            1 RES     
   28172 H6        -995.6489  -769.8264   970.1706 H6            1 RES     
   28173 H6        -996.4915  -769.6632   971.7552 H6            1 RES     
   28174 H6        -995.0082  -767.7283   972.3631 H6            1 RES     
   28175 H6        -994.1328  -769.2752   972.0818 H6            1 RES     
   28176 H6        -994.3328  -766.9646   970.0438 H6            1 RES     
   28177 H6        -993.4626  -768.5189   969.7867 H6            1 RES     
   28178 H6        -991.9747  -766.6080   970.3545 H6            1 RES     
   28179 H6        -992.8308  -766.3579   971.9164 H6            1 RES     
   28180 H6        -992.0369  -768.6220   972.6898 H6            1 RES     
   28181 H6        -990.6703  -767.5728   972.1894 H6            1 RES     
   28182 H6        -991.2369  -768.8780   971.0826 H6            1 RES     
   28183 C0       -1005.9646  -783.7253   965.4687 C0            1 RES     
   28184 C0       -1007.0264  -784.3575   964.4807 C0            1 RES     
   28185 C0       -1007.3205  -783.5015   963.4736 C0            1 RES     
   28186 S1       -1008.4130  -784.1093   962.3539 S1            1 RES     
   28187 C0       -1008.5618  -785.5995   963.1568 C0            1 RES     
   28188 C0       -1007.8049  -785.5370   964.3356 C0            1 RES     
   28189 C0       -1006.6640  -782.2665   963.6930 C0            1 RES     
   28190 C0       -1005.9389  -782.3538   964.7850 C0            1 RES     
   28191 C0       -1005.4219  -781.0682   965.1619 C0            1 RES     
   28192 C0       -1005.8340  -780.0773   964.2894 C0            1 RES     
   28193 S1       -1006.8191  -780.6743   962.9045 S1            1 RES     
   28194 H2       -1007.8061  -786.3494   965.0153 H2            1 RES     
   28195 H2       -1004.9173  -780.8838   966.0628 H2            1 RES     
   28196 N3       -1009.6812  -789.2136   962.7998 N3            1 RES     
   28197 C0       -1009.1053  -788.0773   963.2836 C0            1 RES     
   28198 C0       -1009.2871  -786.8186   962.6514 C0            1 RES     
   28199 C0       -1010.1084  -786.8102   961.5033 C0            1 RES     
   28200 N3       -1010.4023  -785.7041   960.7715 N3            1 RES     
   28201 S1       -1011.3793  -786.3071   959.5851 S1            1 RES     
   28202 N3       -1011.4649  -787.9190   959.9198 N3            1 RES     
   28203 C0       -1010.6926  -788.0230   961.0336 C0            1 RES     
   28204 C0       -1010.4643  -789.2180   961.6933 C0            1 RES     
   28205 H4       -1008.4801  -788.1809   964.1461 H4            1 RES     
   28206 C5       -1006.9118  -790.1174   956.6304 C5            1 RES     
   28207 C5       -1007.6223  -788.9779   957.3605 C5            1 RES     
   28208 C5       -1007.3877  -788.9950   958.8806 C5            1 RES     
   28209 C5       -1005.9240  -788.7270   959.2764 C5            1 RES     
   28210 C5       -1005.7630  -788.7152   960.8043 C5            1 RES     
   28211 C5       -1004.3332  -788.3007   961.2162 C5            1 RES     
   28212 C5       -1004.0946  -788.2075   962.7469 C5            1 RES     
   28213 C5       -1005.1726  -787.3502   963.4123 C5            1 RES     
   28214 C5       -1004.8895  -786.8042   964.8345 C5            1 RES     
   28215 C5       -1004.8689  -787.8026   966.0557 C5            1 RES     
   28216 C5       -1006.3446  -788.2161   966.3123 C5            1 RES     
   28217 C5       -1006.8929  -789.1235   967.4199 C5            1 RES     
   28218 C5       -1008.4402  -789.1355   967.1896 C5            1 RES     
   28219 C5       -1009.3023  -789.9620   968.1421 C5            1 RES     
   28220 C5       -1009.3865  -789.3665   969.5421 C5            1 RES     
   28221 C5       -1003.9738  -785.5717   964.8143 C5            1 RES     
   28222 C0       -1004.4891  -784.4072   965.7558 C0            1 RES     
   28223 C5       -1003.2523  -783.4968   966.1659 C5            1 RES     
   28224 C5       -1002.9892  -783.2572   967.6937 C5            1 RES     
   28225 C5       -1003.7770  -782.0605   968.3007 C5            1 RES     
   28226 C5       -1003.2136  -780.6603   967.9602 C5            1 RES     
   28227 C5       -1004.1669  -779.5083   968.3340 C5            1 RES     
   28228 C5       -1004.3385  -779.2580   969.8405 C5            1 RES     
   28229 C5       -1003.0545  -778.8183   970.5703 C5            1 RES     
   28230 C5       -1002.4523  -777.5271   970.0073 C5            1 RES     
   28231 C5       -1001.4564  -783.2260   968.0676 C5            1 RES     
   28232 C5       -1000.5211  -782.3807   967.1595 C5            1 RES     
   28233 C5        -999.0872  -782.2001   967.7066 C5            1 RES     
   28234 C5        -998.2810  -783.5031   967.8768 C5            1 RES     
   28235 C5        -996.8335  -783.2582   968.3695 C5            1 RES     
   28236 C5        -995.9463  -782.5223   967.3413 C5            1 RES     
   28237 C5        -994.5074  -782.2631   967.8272 C5            1 RES     
   28238 C5        -993.6951  -783.5359   968.0660 C5            1 RES     
   28239 H6       -1005.8107  -790.0323   956.7264 H6            1 RES     
   28240 H6       -1007.1645  -790.0780   955.5499 H6            1 RES     
   28241 H6       -1007.2439  -791.0967   957.0360 H6            1 RES     
   28242 H6       -1007.2996  -788.0023   956.9356 H6            1 RES     
   28243 H6       -1008.7139  -789.0872   957.1785 H6            1 RES     
   28244 H6       -1008.0204  -788.1932   959.3233 H6            1 RES     
   28245 H6       -1007.7255  -789.9690   959.2957 H6            1 RES     
   28246 H6       -1005.6304  -787.7342   958.8676 H6            1 RES     
   28247 H6       -1005.2508  -789.5015   958.8555 H6            1 RES     
   28248 H6       -1006.4885  -787.9727   961.1997 H6            1 RES     
   28249 H6       -1006.0075  -789.7158   961.2203 H6            1 RES     
   28250 H6       -1003.5903  -789.0021   960.7795 H6            1 RES     
   28251 H6       -1004.1441  -787.2927   960.7831 H6            1 RES     
   28252 H6       -1004.0916  -789.2133   963.2192 H6            1 RES     
   28253 H6       -1003.0935  -787.7465   962.8902 H6            1 RES     
   28254 H6       -1006.1172  -787.9253   963.4069 H6            1 RES     
   28255 H6       -1005.3529  -786.4619   962.7648 H6            1 RES     
   28256 H6       -1005.7558  -786.2849   965.0314 H6            1 RES     
   28257 H6       -1004.1976  -788.6640   965.8553 H6            1 RES     
   28258 H6       -1004.5151  -787.2752   966.9690 H6            1 RES     
   28259 H6       -1006.8421  -787.2600   966.5616 H6            1 RES     
   28260 H6       -1006.7003  -788.6560   965.3654 H6            1 RES     
   28261 H6       -1006.6428  -788.7069   968.4195 H6            1 RES     
   28262 H6       -1006.4819  -790.1501   967.3270 H6            1 RES     
   28263 H6       -1008.8385  -788.0932   967.1998 H6            1 RES     
   28264 H6       -1008.6257  -789.5469   966.1731 H6            1 RES     
   28265 H6       -1008.9442  -791.0110   968.1717 H6            1 RES     
   28266 H6       -1010.3379  -789.9598   967.7298 H6            1 RES     
   28267 H6       -1009.7844  -788.3285   969.4936 H6            1 RES     
   28268 H6       -1008.3927  -789.3615   970.0298 H6            1 RES     
   28269 H6       -1010.0895  -789.9751   970.1502 H6            1 RES     
   28270 H6       -1003.9216  -785.1095   963.8048 H6            1 RES     
   28271 H6       -1002.9554  -785.9488   965.0508 H6            1 RES     
   28272 H6       -1002.3632  -784.0899   965.8797 H6            1 RES     
   28273 H6       -1003.1399  -782.5892   965.5402 H6            1 RES     
   28274 H6       -1003.3793  -784.1605   968.2149 H6            1 RES     
   28275 H6       -1004.8320  -782.1580   967.9697 H6            1 RES     
   28276 H6       -1003.7716  -782.1517   969.4085 H6            1 RES     
   28277 H6       -1002.2366  -780.4982   968.4538 H6            1 RES     
   28278 H6       -1003.0308  -780.5969   966.8711 H6            1 RES     
   28279 H6       -1003.7989  -778.5770   967.8575 H6            1 RES     
   28280 H6       -1005.1693  -779.7027   967.9005 H6            1 RES     
   28281 H6       -1004.7431  -780.1705   970.3264 H6            1 RES     
   28282 H6       -1005.0945  -778.4517   969.9626 H6            1 RES     
   28283 H6       -1002.2913  -779.6230   970.5418 H6            1 RES     
   28284 H6       -1003.3162  -778.6401   971.6352 H6            1 RES     
   28285 H6       -1003.2013  -776.7068   970.0295 H6            1 RES     
   28286 H6       -1001.5775  -777.2268   970.6205 H6            1 RES     
   28287 H6       -1002.0952  -777.6701   968.9666 H6            1 RES     
   28288 H6       -1001.0702  -784.2663   968.0053 H6            1 RES     
   28289 H6       -1001.3634  -782.9094   969.1293 H6            1 RES     
   28290 H6       -1000.9051  -781.3610   967.0231 H6            1 RES     
   28291 H6       -1000.4682  -782.8348   966.1472 H6            1 RES     
   28292 H6        -998.5649  -781.5434   966.9827 H6            1 RES     
   28293 H6        -999.1316  -781.6690   968.6832 H6            1 RES     
   28294 H6        -998.2464  -784.0613   966.9161 H6            1 RES     
   28295 H6        -998.7912  -784.1343   968.6323 H6            1 RES     
   28296 H6        -996.8556  -782.6897   969.3251 H6            1 RES     
   28297 H6        -996.3823  -784.2541   968.5722 H6            1 RES     
   28298 H6        -996.3828  -781.5273   967.1242 H6            1 RES     
   28299 H6        -995.9126  -783.1037   966.3941 H6            1 RES     
   28300 H6        -993.9835  -781.6733   967.0426 H6            1 RES     
   28301 H6        -994.5261  -781.6554   968.7574 H6            1 RES     
   28302 H6        -994.1290  -784.1415   968.8867 H6            1 RES     
   28303 H6        -992.6590  -783.2594   968.3577 H6            1 RES     
   28304 H6        -993.6485  -784.1443   967.1380 H6            1 RES     
   28305 C0       -1011.8727  -794.4179   961.5524 C0            1 RES     
   28306 C0       -1013.1790  -794.6013   960.6790 C0            1 RES     
   28307 C0       -1013.4289  -793.4927   959.9427 C0            1 RES     
   28308 S1       -1014.7792  -793.6161   958.9536 S1            1 RES     
   28309 C0       -1015.1227  -795.2046   959.4497 C0            1 RES     
   28310 C0       -1014.2044  -795.5575   960.4490 C0            1 RES     
   28311 C0       -1012.4986  -792.4798   960.2788 C0            1 RES     
   28312 C0       -1011.6558  -792.9495   961.1702 C0            1 RES     
   28313 C0       -1010.8261  -791.9012   961.6945 C0            1 RES     
   28314 C0       -1011.1412  -790.6751   961.1376 C0            1 RES     
   28315 S1       -1012.4246  -790.7440   959.8755 S1            1 RES     
   28316 H2       -1014.2787  -796.4950   960.9364 H2            1 RES     
   28317 H2       -1010.1664  -792.0275   962.5002 H2            1 RES     
   28318 N3       -1017.0288  -798.3769   958.5862 N3            1 RES     
   28319 C0       -1016.1583  -797.5071   959.1715 C0            1 RES     
   28320 C0       -1016.1583  -796.1223   958.8555 C0            1 RES     
   28321 C0       -1017.1192  -795.6978   957.9126 C0            1 RES     
   28322 N3       -1017.2747  -794.4157   957.4915 N3            1 RES     
   28323 S1       -1018.5223  -794.5389   956.4172 S1            1 RES     
   28324 N3       -1018.9000  -796.1435   956.4270 N3            1 RES     
   28325 C0       -1018.0119  -796.6427   957.3269 C0            1 RES     
   28326 C0       -1017.9494  -797.9812   957.6733 C0            1 RES     
   28327 H4       -1015.4493  -797.9204   959.8585 H4            1 RES     
   28328 C5       -1015.4588  -798.2599   951.9477 C5            1 RES     
   28329 C5       -1015.7936  -797.2201   953.0170 C5            1 RES     
   28330 C5       -1015.3461  -797.6386   954.4279 C5            1 RES     
   28331 C5       -1013.8170  -797.7330   954.5816 C5            1 RES     
   28332 C5       -1013.4333  -798.1128   956.0199 C5            1 RES     
   28333 C5       -1011.9032  -798.0650   956.2255 C5            1 RES     
   28334 C5       -1011.4267  -798.3813   957.6682 C5            1 RES     
   28335 C5       -1012.1862  -797.5315   958.6884 C5            1 RES     
   28336 C5       -1011.5861  -797.3973   960.1106 C5            1 RES     
   28337 C5       -1011.5992  -798.6449   961.0758 C5            1 RES     
   28338 C5       -1013.0748  -798.8425   961.5213 C5            1 RES     
   28339 C5       -1013.6346  -799.8766   962.5052 C5            1 RES     
   28340 C5       -1015.1653  -799.5624   962.5785 C5            1 RES     
   28341 C5       -1016.0338  -800.4274   963.4903 C5            1 RES     
   28342 C5       -1015.7810  -800.1763   964.9717 C5            1 RES     
   28343 C5       -1010.4415  -796.3752   960.1664 C5            1 RES     
   28344 C0       -1010.5512  -795.3959   961.4062 C0            1 RES     
   28345 C5       -1009.1017  -794.8401   961.7479 C5            1 RES     
   28346 C5       -1008.5708  -795.0202   963.2129 C5            1 RES     
   28347 C5       -1008.9862  -793.8830   964.1905 C5            1 RES     
   28348 C5       -1008.1932  -792.5630   964.0404 C5            1 RES     
   28349 C5       -1008.8123  -791.3841   964.8167 C5            1 RES     
   28350 C5       -1008.7021  -791.4728   966.3469 C5            1 RES     
   28351 C5       -1007.2604  -791.4509   966.8907 C5            1 RES     
   28352 C5       -1006.4860  -790.1889   966.4975 C5            1 RES     
   28353 C5       -1007.0287  -795.3476   963.2842 C5            1 RES     
   28354 C5       -1006.0790  -794.4880   962.4049 C5            1 RES     
   28355 C5       -1004.5749  -794.6965   962.6917 C5            1 RES     
   28356 C5       -1004.0497  -796.1230   962.4352 C5            1 RES     
   28357 C5       -1002.5268  -796.2596   962.6804 C5            1 RES     
   28358 C5       -1001.6647  -795.4676   961.6727 C5            1 RES     
   28359 C5       -1000.1480  -795.5873   961.9159 C5            1 RES     
   28360 C5        -999.6003  -797.0024   961.7303 C5            1 RES     
   28361 H6       -1014.3631  -798.3942   951.8459 H6            1 RES     
   28362 H6       -1015.8540  -797.9213   950.9668 H6            1 RES     
   28363 H6       -1015.9289  -799.2338   952.2016 H6            1 RES     
   28364 H6       -1015.3362  -796.2435   952.7456 H6            1 RES     
   28365 H6       -1016.8979  -797.0902   953.0294 H6            1 RES     
   28366 H6       -1015.7204  -796.8670   955.1375 H6            1 RES     
   28367 H6       -1015.8192  -798.6088   954.6929 H6            1 RES     
   28368 H6       -1013.3817  -796.7386   954.3348 H6            1 RES     
   28369 H6       -1013.3945  -798.4908   953.8906 H6            1 RES     
   28370 H6       -1013.9168  -797.3703   956.6899 H6            1 RES     
   28371 H6       -1013.8218  -799.1249   956.2626 H6            1 RES     
   28372 H6       -1011.4001  -798.7615   955.5208 H6            1 RES     
   28373 H6       -1011.5691  -797.0321   955.9785 H6            1 RES     
   28374 H6       -1011.5691  -799.4550   957.9163 H6            1 RES     
   28375 H6       -1010.3404  -798.1502   957.7075 H6            1 RES     
   28376 H6       -1013.2222  -797.9144   958.7474 H6            1 RES     
   28377 H6       -1012.2662  -796.4974   958.2821 H6            1 RES     
   28378 H6       -1012.2826  -796.7962   960.5715 H6            1 RES     
   28379 H6       -1011.1646  -799.5378   960.5794 H6            1 RES     
   28380 H6       -1011.0099  -798.4199   961.9921 H6            1 RES     
   28381 H6       -1013.3141  -797.9011   962.0506 H6            1 RES     
   28382 H6       -1013.6521  -798.9756   960.5909 H6            1 RES     
   28383 H6       -1013.1563  -799.7598   963.5017 H6            1 RES     
   28384 H6       -1013.4707  -800.9074   962.1282 H6            1 RES     
   28385 H6       -1015.3257  -798.4993   962.8769 H6            1 RES     
   28386 H6       -1015.5824  -799.6816   961.5544 H6            1 RES     
   28387 H6       -1015.9077  -801.4994   963.2364 H6            1 RES     
   28388 H6       -1017.0942  -800.1460   963.2936 H6            1 RES     
   28389 H6       -1015.9506  -799.1033   965.2127 H6            1 RES     
   28390 H6       -1014.7482  -800.4614   965.2503 H6            1 RES     
   28391 H6       -1016.5001  -800.7791   965.5666 H6            1 RES     
   28392 H6       -1010.4414  -795.7029   959.2812 H6            1 RES     
   28393 H6       -1009.5037  -796.9700   960.1212 H6            1 RES     
   28394 H6       -1008.4121  -795.4945   961.1817 H6            1 RES     
   28395 H6       -1008.8916  -793.8440   961.3103 H6            1 RES     
   28396 H6       -1009.0635  -795.9388   963.6044 H6            1 RES     
   28397 H6       -1010.0747  -793.7128   964.0552 H6            1 RES     
   28398 H6       -1008.8368  -794.2343   965.2344 H6            1 RES     
   28399 H6       -1007.1421  -792.6964   964.3598 H6            1 RES     
   28400 H6       -1008.1639  -792.2757   962.9726 H6            1 RES     
   28401 H6       -1008.3283  -790.4456   964.4781 H6            1 RES     
   28402 H6       -1009.8859  -791.2913   964.5533 H6            1 RES     
   28403 H6       -1009.2160  -792.3893   966.7053 H6            1 RES     
   28404 H6       -1009.2417  -790.5990   966.7733 H6            1 RES     
   28405 H6       -1006.6995  -792.3466   966.5531 H6            1 RES     
   28406 H6       -1007.3178  -791.4878   967.9995 H6            1 RES     
   28407 H6       -1007.0308  -789.2793   966.8294 H6            1 RES     
   28408 H6       -1005.4865  -790.2008   966.9794 H6            1 RES     
   28409 H6       -1006.3255  -790.1409   965.4006 H6            1 RES     
   28410 H6       -1006.8873  -796.3944   962.9385 H6            1 RES     
   28411 H6       -1006.7145  -795.3136   964.3501 H6            1 RES     
   28412 H6       -1006.2521  -793.4141   962.5551 H6            1 RES     
   28413 H6       -1006.2745  -794.6907   961.3304 H6            1 RES     
   28414 H6       -1004.0371  -793.9886   962.0302 H6            1 RES     
   28415 H6       -1004.3601  -794.4133   963.7459 H6            1 RES     
   28416 H6       -1004.2775  -796.4342   961.3926 H6            1 RES     
   28417 H6       -1004.5658  -796.8163   963.1300 H6            1 RES     
   28418 H6       -1002.2855  -795.9395   963.7178 H6            1 RES     
   28419 H6       -1002.2740  -797.3383   962.5857 H6            1 RES     
   28420 H6       -1001.9056  -794.3889   961.7506 H6            1 RES     
   28421 H6       -1001.8962  -795.8040   960.6385 H6            1 RES     
   28422 H6        -999.6319  -794.9291   961.1822 H6            1 RES     
   28423 H6        -999.8988  -795.2244   962.9362 H6            1 RES     
   28424 H6       -1000.0275  -797.7000   962.4782 H6            1 RES     
   28425 H6        -998.4977  -796.9890   961.8677 H6            1 RES     
   28426 H6        -999.8224  -797.3714   960.7066 H6            1 RES     
   28427 C0       -1020.4415  -802.6694   956.7499 C0            1 RES     
   28428 C0       -1021.8711  -802.4084   956.1246 C0            1 RES     
   28429 C0       -1021.9842  -801.1305   955.6914 C0            1 RES     
   28430 S1       -1023.4606  -800.7770   954.9757 S1            1 RES     
   28431 C0       -1024.0585  -802.3525   955.1946 C0            1 RES     
   28432 C0       -1023.0996  -803.0878   955.9060 C0            1 RES     
   28433 C0       -1020.8198  -800.4054   956.0417 C0            1 RES     
   28434 C0       -1019.9746  -801.2136   956.6402 C0            1 RES     
   28435 C0       -1018.8720  -800.4818   957.1977 C0            1 RES     
   28436 C0       -1018.9964  -799.1228   956.9731 C0            1 RES     
   28437 S1       -1020.4369  -798.6641   955.9936 S1            1 RES     
   28438 H2       -1023.2997  -804.0863   956.1974 H2            1 RES     
   28439 H2       -1018.1429  -800.9094   957.8190 H2            1 RES     
   28440 N3       -1026.7046  -804.8446   954.0857 N3            1 RES     
   28441 C0       -1025.5917  -804.3049   954.6576 C0            1 RES     
   28442 C0       -1025.3424  -802.9068   954.6361 C0            1 RES     
   28443 C0       -1026.3189  -802.1089   954.0016 C0            1 RES     
   28444 N3       -1026.2572  -800.7567   953.8882 N3            1 RES     
   28445 S1       -1027.6471  -800.4007   953.0710 S1            1 RES     
   28446 N3       -1028.3532  -801.8701   952.8263 N3            1 RES     
   28447 C0       -1027.4694  -802.7163   953.4183 C0            1 RES     
   28448 C0       -1027.6439  -804.0884   953.4664 C0            1 RES     
   28449 H4       -1024.8939  -804.9872   955.0970 H4            1 RES     
   28450 C5       -1026.1440  -803.4307   947.4347 C5            1 RES     
   28451 C5       -1026.0872  -802.6326   948.7372 C5            1 RES     
   28452 C5       -1025.5362  -803.4460   949.9207 C5            1 RES     
   28453 C5       -1024.0570  -803.8404   949.7557 C5            1 RES     
   28454 C5       -1023.5552  -804.6122   950.9857 C5            1 RES     
   28455 C5       -1022.0370  -804.8833   950.8991 C5            1 RES     
   28456 C5       -1021.4315  -805.6117   952.1284 C5            1 RES     
   28457 C5       -1021.8326  -804.9090   953.4266 C5            1 RES     
   28458 C5       -1021.0143  -805.2237   954.7042 C5            1 RES     
   28459 C5       -1021.1510  -806.6428   955.3795 C5            1 RES     
   28460 C5       -1022.5523  -806.6790   956.0501 C5            1 RES     
   28461 C5       -1023.1686  -807.8028   956.8917 C5            1 RES     
   28462 C5       -1024.5688  -807.2520   957.3198 C5            1 RES     
   28463 C5       -1025.4576  -808.1430   958.1857 C5            1 RES     
   28464 C5       -1024.9411  -808.2992   959.6106 C5            1 RES     
   28465 C5       -1019.6823  -804.4609   954.7462 C5            1 RES     
   28466 C0       -1019.3959  -803.8005   956.1569 C0            1 RES     
   28467 C5       -1017.8269  -803.6044   956.3199 C5            1 RES     
   28468 C5       -1017.1363  -804.2175   957.5879 C5            1 RES     
   28469 C5       -1017.1500  -803.2904   958.8376 C5            1 RES     
   28470 C5       -1016.1243  -802.1324   958.8100 C5            1 RES     
   28471 C5       -1016.3557  -801.0821   959.9141 C5            1 RES     
   28472 C5       -1016.0421  -801.5496   961.3440 C5            1 RES     
   28473 C5       -1014.5649  -801.9103   961.5939 C5            1 RES     
   28474 C5       -1013.6056  -800.7467   961.3246 C5            1 RES     
   28475 C5       -1015.7066  -804.8173   957.2938 C5            1 RES     
   28476 C5       -1014.7357  -803.9534   956.4423 C5            1 RES     
   28477 C5       -1013.2854  -804.4841   956.3867 C5            1 RES     
   28478 C5       -1013.1210  -805.8782   955.7493 C5            1 RES     
   28479 C5       -1011.6433  -806.3335   955.6647 C5            1 RES     
   28480 C5       -1010.7904  -805.4884   954.6930 C5            1 RES     
   28481 C5       -1009.3154  -805.9261   954.6110 C5            1 RES     
   28482 C5       -1009.1164  -807.3300   954.0397 C5            1 RES     
   28483 H6       -1025.1298  -803.7267   947.0994 H6            1 RES     
   28484 H6       -1026.5983  -802.8050   946.6378 H6            1 RES     
   28485 H6       -1026.7686  -804.3392   947.5705 H6            1 RES     
   28486 H6       -1025.4769  -801.7152   948.5877 H6            1 RES     
   28487 H6       -1027.1240  -802.3181   948.9875 H6            1 RES     
   28488 H6       -1025.6279  -802.8118   950.8309 H6            1 RES     
   28489 H6       -1026.1612  -804.3531   950.0685 H6            1 RES     
   28490 H6       -1023.4606  -802.9080   949.6376 H6            1 RES     
   28491 H6       -1023.9130  -804.4744   948.8570 H6            1 RES     
   28492 H6       -1023.7644  -803.9772   951.8728 H6            1 RES     
   28493 H6       -1024.1108  -805.5689   951.0872 H6            1 RES     
   28494 H6       -1021.8042  -805.4694   949.9843 H6            1 RES     
   28495 H6       -1021.5302  -803.8962   950.8081 H6            1 RES     
   28496 H6       -1021.7617  -806.6716   952.1754 H6            1 RES     
   28497 H6       -1020.3272  -805.5904   952.0048 H6            1 RES     
   28498 H6       -1022.9060  -805.1075   953.6042 H6            1 RES     
   28499 H6       -1021.7488  -803.8105   953.2623 H6            1 RES     
   28500 H6       -1021.4904  -804.6370   955.4028 H6            1 RES     
   28501 H6       -1020.9955  -807.4541   954.6378 H6            1 RES     
   28502 H6       -1020.3986  -806.7487   956.1920 H6            1 RES     
   28503 H6       -1022.5041  -805.8634   956.7959 H6            1 RES     
   28504 H6       -1023.2758  -806.4841   955.2405 H6            1 RES     
   28505 H6       -1022.5346  -808.0117   957.7804 H6            1 RES     
   28506 H6       -1023.2863  -808.7268   956.2885 H6            1 RES     
   28507 H6       -1024.4524  -806.2790   957.8534 H6            1 RES     
   28508 H6       -1025.1484  -807.0495   956.3923 H6            1 RES     
   28509 H6       -1025.6025  -809.1290   957.6996 H6            1 RES     
   28510 H6       -1026.4506  -807.6417   958.2576 H6            1 RES     
   28511 H6       -1024.8400  -807.3015   960.0929 H6            1 RES     
   28512 H6       -1023.9635  -808.8186   959.6219 H6            1 RES     
   28513 H6       -1025.6765  -808.8906   960.1970 H6            1 RES     
   28514 H6       -1019.6693  -803.6082   954.0332 H6            1 RES     
   28515 H6       -1018.9105  -805.1827   954.4018 H6            1 RES     
   28516 H6       -1017.3845  -804.2160   955.5108 H6            1 RES     
   28517 H6       -1017.4758  -802.5856   956.0622 H6            1 RES     
   28518 H6       -1017.7506  -805.1019   957.8714 H6            1 RES     
   28519 H6       -1018.1848  -802.9051   958.9513 H6            1 RES     
   28520 H6       -1016.9267  -803.9002   959.7397 H6            1 RES     
   28521 H6       -1015.0907  -802.5198   958.8878 H6            1 RES     
   28522 H6       -1016.1924  -801.6094   957.8377 H6            1 RES     
   28523 H6       -1015.7377  -800.1897   959.6871 H6            1 RES     
   28524 H6       -1017.4115  -800.7428   959.8861 H6            1 RES     
   28525 H6       -1016.6813  -802.4204   961.6002 H6            1 RES     
   28526 H6       -1016.3135  -800.7215   962.0348 H6            1 RES     
   28527 H6       -1014.2646  -802.7841   960.9798 H6            1 RES     
   28528 H6       -1014.4645  -802.1989   962.6620 H6            1 RES     
   28529 H6       -1013.8882  -799.8610   961.9330 H6            1 RES     
   28530 H6       -1012.5717  -801.0476   961.5931 H6            1 RES     
   28531 H6       -1013.6023  -800.4684   960.2506 H6            1 RES     
   28532 H6       -1015.8448  -805.7601   956.7217 H6            1 RES     
   28533 H6       -1015.2385  -805.0931   958.2638 H6            1 RES     
   28534 H6       -1014.6511  -802.9327   956.8383 H6            1 RES     
   28535 H6       -1015.1265  -803.8576   955.4069 H6            1 RES     
   28536 H6       -1012.7125  -803.7448   955.7924 H6            1 RES     
   28537 H6       -1012.8618  -804.5016   957.4152 H6            1 RES     
   28538 H6       -1013.5615  -805.8879   954.7287 H6            1 RES     
   28539 H6       -1013.6648  -806.6152   956.3743 H6            1 RES     
   28540 H6       -1011.1887  -806.3164   956.6795 H6            1 RES     
   28541 H6       -1011.6438  -807.3860   955.3057 H6            1 RES     
   28542 H6       -1010.7810  -804.4341   955.0335 H6            1 RES     
   28543 H6       -1011.2387  -805.5236   953.6760 H6            1 RES     
   28544 H6       -1008.7848  -805.2133   953.9415 H6            1 RES     
   28545 H6       -1008.8466  -805.8654   955.6167 H6            1 RES     
   28546 H6       -1009.5675  -808.0994   954.6977 H6            1 RES     
   28547 H6       -1008.0284  -807.5429   953.9628 H6            1 RES     
   28548 H6       -1009.5610  -807.4005   953.0244 H6            1 RES     
   28549 C0       -1031.1887  -807.9120   952.1039 C0            1 RES     
   28550 C0       -1032.6058  -807.2638   951.8310 C0            1 RES     
   28551 C0       -1032.5059  -805.9201   951.6969 C0            1 RES     
   28552 S1       -1033.9618  -805.1539   951.3650 S1            1 RES     
   28553 C0       -1034.8436  -806.6064   951.3693 C0            1 RES     
   28554 C0       -1033.9696  -807.6460   951.7185 C0            1 RES     
   28555 C0       -1031.1749  -805.5145   951.9573 C0            1 RES     
   28556 C0       -1030.4430  -806.5768   952.2052 C0            1 RES     
   28557 C0       -1029.1394  -806.2032   952.6779 C0            1 RES     
   28558 C0       -1029.0024  -804.8295   952.7627 C0            1 RES     
   28559 S1       -1030.4401  -803.9063   952.1921 S1            1 RES     
   28560 H2       -1034.3332  -808.6341   951.8335 H2            1 RES     
   28561 H2       -1028.4350  -806.8869   953.0474 H2            1 RES     
   28562 N3       -1038.0952  -808.2608   950.3051 N3            1 RES     
   28563 C0       -1036.8207  -808.0759   950.7505 C0            1 RES     
   28564 C0       -1036.2844  -806.7786   950.9666 C0            1 RES     
   28565 C0       -1037.1505  -805.6945   950.7072 C0            1 RES     
   28566 N3       -1036.8187  -804.3863   950.8617 N3            1 RES     
   28567 S1       -1038.2055  -803.6088   950.4163 S1            1 RES     
   28568 N3       -1039.2376  -804.8309   950.0177 N3            1 RES     
   28569 C0       -1038.4775  -805.9349   950.2443 C0            1 RES     
   28570 C0       -1038.9321  -807.2267   950.0447 C0            1 RES     
   28571 H4       -1036.2277  -808.9543   950.8996 H4            1 RES     
   28572 C5       -1038.2341  -805.4281   944.0999 C5            1 RES     
   28573 C5       -1037.8163  -804.9849   945.5019 C5            1 RES     
   28574 C5       -1037.2831  -806.1397   946.3669 C5            1 RES     
   28575 C5       -1035.9634  -806.7364   945.8443 C5            1 RES     
   28576 C5       -1035.4620  -807.8538   946.7718 C5            1 RES     
   28577 C5       -1034.0667  -808.3581   946.3422 C5            1 RES     
   28578 C5       -1033.4561  -809.4521   947.2580 C5            1 RES     
   28579 C5       -1033.5015  -809.0189   948.7244 C5            1 RES     
   28580 C5       -1032.5899  -809.7664   949.7299 C5            1 RES     
   28581 C5       -1032.9254  -811.2587   950.1157 C5            1 RES     
   28582 C5       -1034.1873  -811.2072   951.0210 C5            1 RES     
   28583 C5       -1034.8983  -812.3730   951.7185 C5            1 RES     
   28584 C5       -1036.0694  -811.7032   952.5103 C5            1 RES     
   28585 C5       -1036.9903  -812.6046   953.3309 C5            1 RES     
   28586 C5       -1036.3144  -813.1828   954.5680 C5            1 RES     
   28587 C5       -1031.1344  -809.2807   949.6698 C5            1 RES     
   28588 C0       -1030.5083  -809.0350   951.1037 C0            1 RES     
   28589 C5       -1028.9272  -809.1612   950.9991 C5            1 RES     
   28590 C5       -1028.2040  -810.1691   951.9592 C5            1 RES     
   28591 C5       -1027.8346  -809.5778   953.3503 C5            1 RES     
   28592 C5       -1026.6007  -808.6444   953.3627 C5            1 RES     
   28593 C5       -1026.4366  -807.8626   954.6808 C5            1 RES     
   28594 C5       -1026.0225  -808.7039   955.8983 C5            1 RES     
   28595 C5       -1024.6362  -809.3665   955.7814 C5            1 RES     
   28596 C5       -1023.5009  -808.3588   955.5756 C5            1 RES     
   28597 C5       -1026.9951  -810.9226   951.2803 C5            1 RES     
   28598 C5       -1025.9986  -810.0650   950.4524 C5            1 RES     
   28599 C5       -1024.7198  -810.8127   950.0126 C5            1 RES     
   28600 C5       -1024.9530  -812.0221   949.0854 C5            1 RES     
   28601 C5       -1023.6359  -812.6958   948.6280 C5            1 RES     
   28602 C5       -1022.7752  -811.8069   947.7034 C5            1 RES     
   28603 C5       -1021.4565  -812.4639   947.2526 C5            1 RES     
   28604 C5       -1021.6487  -813.7044   946.3802 C5            1 RES     
   28605 H6       -1037.3674  -805.8089   943.5231 H6            1 RES     
   28606 H6       -1038.6567  -804.5614   943.5492 H6            1 RES     
   28607 H6       -1039.0113  -806.2190   944.1651 H6            1 RES     
   28608 H6       -1037.0529  -804.1797   945.4279 H6            1 RES     
   28609 H6       -1038.7133  -804.5623   946.0052 H6            1 RES     
   28610 H6       -1037.1017  -805.7339   947.3874 H6            1 RES     
   28611 H6       -1038.0587  -806.9320   946.4441 H6            1 RES     
   28612 H6       -1035.2057  -805.9218   945.8063 H6            1 RES     
   28613 H6       -1036.0926  -807.1538   944.8248 H6            1 RES     
   28614 H6       -1035.3974  -807.4212   947.7929 H6            1 RES     
   28615 H6       -1036.1880  -808.6947   946.7812 H6            1 RES     
   28616 H6       -1034.1023  -808.7416   945.3000 H6            1 RES     
   28617 H6       -1033.3798  -807.4821   946.3585 H6            1 RES     
   28618 H6       -1033.9945  -810.4182   947.1508 H6            1 RES     
   28619 H6       -1032.4034  -809.5958   946.9317 H6            1 RES     
   28620 H6       -1034.5543  -809.0627   949.0604 H6            1 RES     
   28621 H6       -1033.2102  -807.9450   948.7742 H6            1 RES     
   28622 H6       -1032.8210  -809.2883   950.6113 H6            1 RES     
   28623 H6       -1033.0582  -811.8850   949.2085 H6            1 RES     
   28624 H6       -1032.1014  -811.6846   950.7297 H6            1 RES     
   28625 H6       -1033.8562  -810.6136   951.8937 H6            1 RES     
   28626 H6       -1034.9638  -810.7020   950.4222 H6            1 RES     
   28627 H6       -1034.1995  -812.8947   952.4076 H6            1 RES     
   28628 H6       -1035.2985  -813.0919   950.9739 H6            1 RES     
   28629 H6       -1035.6703  -810.9207   953.1983 H6            1 RES     
   28630 H6       -1036.7228  -811.1879   951.7723 H6            1 RES     
   28631 H6       -1037.4127  -813.4058   952.6912 H6            1 RES     
   28632 H6       -1037.8315  -811.9688   953.6925 H6            1 RES     
   28633 H6       -1035.9323  -812.3618   955.2147 H6            1 RES     
   28634 H6       -1035.4797  -813.8529   954.2855 H6            1 RES     
   28635 H6       -1037.0643  -813.7584   955.1517 H6            1 RES     
   28636 H6       -1031.0449  -808.2990   949.1563 H6            1 RES     
   28637 H6       -1030.5942  -810.0237   949.0443 H6            1 RES     
   28638 H6       -1028.7502  -809.6307   950.0129 H6            1 RES     
   28639 H6       -1028.4085  -808.1879   950.8916 H6            1 RES     
   28640 H6       -1028.9444  -810.9738   952.1691 H6            1 RES     
   28641 H6       -1028.7347  -809.0554   953.7364 H6            1 RES     
   28642 H6       -1027.6160  -810.4138   954.0494 H6            1 RES     
   28643 H6       -1025.6739  -809.2140   953.1602 H6            1 RES     
   28644 H6       -1026.6983  -807.9018   952.5487 H6            1 RES     
   28645 H6       -1025.6827  -807.0642   954.5260 H6            1 RES     
   28646 H6       -1027.3878  -807.3469   954.9255 H6            1 RES     
   28647 H6       -1026.7880  -809.4848   956.0897 H6            1 RES     
   28648 H6       -1026.0056  -808.0292   956.7822 H6            1 RES     
   28649 H6       -1024.6236  -810.1081   954.9563 H6            1 RES     
   28650 H6       -1024.4431  -809.9136   956.7288 H6            1 RES     
   28651 H6       -1023.4947  -807.6076   956.3942 H6            1 RES     
   28652 H6       -1022.5272  -808.8910   955.5737 H6            1 RES     
   28653 H6       -1023.5969  -807.8383   954.6004 H6            1 RES     
   28654 H6       -1027.4145  -811.6633   950.5657 H6            1 RES     
   28655 H6       -1026.4587  -811.4985   952.0656 H6            1 RES     
   28656 H6       -1025.6403  -809.1986   951.0241 H6            1 RES     
   28657 H6       -1026.5084  -809.6590   949.5528 H6            1 RES     
   28658 H6       -1024.0963  -810.0655   949.4827 H6            1 RES     
   28659 H6       -1024.1625  -811.1480   950.9153 H6            1 RES     
   28660 H6       -1025.5313  -811.7119   948.1881 H6            1 RES     
   28661 H6       -1025.5434  -812.7796   949.6398 H6            1 RES     
   28662 H6       -1023.0434  -813.0001   949.5185 H6            1 RES     
   28663 H6       -1023.9143  -813.6161   948.0692 H6            1 RES     
   28664 H6       -1022.4905  -810.8820   948.2431 H6            1 RES     
   28665 H6       -1023.3658  -811.5204   946.8059 H6            1 RES     
   28666 H6       -1020.8907  -811.7168   946.6531 H6            1 RES     
   28667 H6       -1020.8422  -812.7269   948.1405 H6            1 RES     
   28668 H6       -1022.1516  -814.5168   946.9419 H6            1 RES     
   28669 H6       -1020.6549  -814.0801   946.0542 H6            1 RES     
   28670 H6       -1022.2430  -813.4528   945.4763 H6            1 RES     
   28671 C0       -1043.3735  -809.9356   948.6385 C0            1 RES     
   28672 C0       -1044.6438  -809.0033   948.7804 C0            1 RES     
   28673 C0       -1044.2800  -807.7051   948.9060 C0            1 RES     
   28674 S1       -1045.5712  -806.6392   949.0227 S1            1 RES     
   28675 C0       -1046.7324  -807.8737   948.9003 C0            1 RES     
   28676 C0       -1046.0590  -809.1029   948.8563 C0            1 RES     
   28677 C0       -1042.8695  -807.6125   948.9832 C0            1 RES     
   28678 C0       -1042.3531  -808.8146   948.8645 C0            1 RES     
   28679 C0       -1040.9447  -808.7981   949.1442 C0            1 RES     
   28680 C0       -1040.5063  -807.5298   949.4789 C0            1 RES     
   28681 S1       -1041.7816  -806.2604   949.3949 S1            1 RES     
   28682 H2       -1046.6043  -810.0107   948.8354 H2            1 RES     
   28683 H2       -1040.3560  -809.6625   949.2247 H2            1 RES     
   28684 N3       -1050.3831  -808.6322   948.1659 N3            1 RES     
   28685 C0       -1049.0471  -808.7845   948.3865 C0            1 RES     
   28686 C0       -1048.2200  -807.6902   948.7551 C0            1 RES     
   28687 C0       -1048.8631  -806.4412   948.8929 C0            1 RES     
   28688 N3       -1048.2403  -805.2860   949.2438 N3            1 RES     
   28689 S1       -1049.4791  -804.1945   949.2406 S1            1 RES     
   28690 N3       -1050.7958  -805.0868   948.8073 N3            1 RES     
   28691 C0       -1050.2642  -806.3285   948.6542 C0            1 RES     
   28692 C0       -1051.0088  -807.4357   948.2869 C0            1 RES     
   28693 H4       -1048.6402  -809.7631   948.2372 H4            1 RES     
   28694 C5       -1050.8284  -804.4273   942.8115 C5            1 RES     
   28695 C5       -1050.1232  -804.4100   944.1676 C5            1 RES     
   28696 C5       -1049.7274  -805.8122   944.6607 C5            1 RES     
   28697 C5       -1048.6576  -806.4893   943.7843 C5            1 RES     
   28698 C5       -1048.2753  -807.8651   944.3512 C5            1 RES     
   28699 C5       -1047.0991  -808.4892   943.5684 C5            1 RES     
   28700 C5       -1046.6079  -809.8590   944.1078 C5            1 RES     
   28701 C5       -1046.3427  -809.7855   945.6125 C5            1 RES     
   28702 C5       -1045.4735  -810.8981   946.2508 C5            1 RES     
   28703 C5       -1046.0595  -812.3569   946.3818 C5            1 RES     
   28704 C5       -1047.1333  -812.3018   947.5036 C5            1 RES     
   28705 C5       -1047.9660  -813.4568   948.0724 C5            1 RES     
   28706 C5       -1048.8369  -812.7998   949.1937 C5            1 RES     
   28707 C5       -1049.7975  -813.6947   949.9747 C5            1 RES     
   28708 C5       -1049.0857  -814.6594   950.9151 C5            1 RES     
   28709 C5       -1043.9731  -810.6747   946.0127 C5            1 RES     
   28710 C0       -1043.1043  -810.8902   947.3191 C0            1 RES     
   28711 C5       -1041.6198  -811.2627   946.8896 C5            1 RES     
   28712 C5       -1040.9950  -812.5804   947.4675 C5            1 RES     
   28713 C5       -1040.3065  -812.4106   948.8526 C5            1 RES     
   28714 C5       -1038.9137  -811.7378   948.8176 C5            1 RES     
   28715 C5       -1038.3934  -811.3326   950.2108 C5            1 RES     
   28716 C5       -1037.9935  -812.4982   951.1290 C5            1 RES     
   28717 C5       -1036.8137  -813.3463   950.6158 C5            1 RES     
   28718 C5       -1035.5323  -812.5334   950.4055 C5            1 RES     
   28719 C5       -1040.0889  -813.3508   946.4304 C5            1 RES     
   28720 C5       -1039.0656  -812.5092   945.6189 C5            1 RES     
   28721 C5       -1038.0555  -813.3431   944.7991 C5            1 RES     
   28722 C5       -1038.6761  -814.2375   943.7075 C5            1 RES     
   28723 C5       -1037.6158  -815.0032   942.8784 C5            1 RES     
   28724 C5       -1036.7311  -814.0849   942.0065 C5            1 RES     
   28725 C5       -1035.6647  -814.8365   941.1870 C5            1 RES     
   28726 C5       -1036.2443  -815.7808   940.1338 C5            1 RES     
   28727 H6       -1050.1580  -804.8059   942.0139 H6            1 RES     
   28728 H6       -1051.1326  -803.3944   942.5404 H6            1 RES     
   28729 H6       -1051.7383  -805.0624   942.8623 H6            1 RES     
   28730 H6       -1049.2249  -803.7568   944.1140 H6            1 RES     
   28731 H6       -1050.8247  -803.9687   944.9089 H6            1 RES     
   28732 H6       -1049.3147  -805.6987   945.6883 H6            1 RES     
   28733 H6       -1050.6342  -806.4518   944.7224 H6            1 RES     
   28734 H6       -1047.7575  -805.8346   943.7682 H6            1 RES     
   28735 H6       -1049.0222  -806.6233   942.7454 H6            1 RES     
   28736 H6       -1047.9696  -807.7056   945.4072 H6            1 RES     
   28737 H6       -1049.1547  -808.5436   944.3284 H6            1 RES     
   28738 H6       -1047.3693  -808.6018   942.4965 H6            1 RES     
   28739 H6       -1046.2461  -807.7764   943.6305 H6            1 RES     
   28740 H6       -1047.3502  -810.6622   943.9115 H6            1 RES     
   28741 H6       -1045.6703  -810.1030   943.5632 H6            1 RES     
   28742 H6       -1047.3190  -809.7228   946.1282 H6            1 RES     
   28743 H6       -1045.8244  -808.8222   945.8229 H6            1 RES     
   28744 H6       -1045.4644  -810.6103   947.2387 H6            1 RES     
   28745 H6       -1046.4555  -812.7165   945.4089 H6            1 RES     
   28746 H6       -1045.2641  -813.0540   946.7265 H6            1 RES     
   28747 H6       -1046.5579  -811.9998   948.3988 H6            1 RES     
   28748 H6       -1047.8637  -811.5408   947.1806 H6            1 RES     
   28749 H6       -1047.3009  -814.2413   948.4937 H6            1 RES     
   28750 H6       -1048.6161  -813.8968   947.2880 H6            1 RES     
   28751 H6       -1048.1826  -812.2855   949.9369 H6            1 RES     
   28752 H6       -1049.4667  -812.0178   948.7154 H6            1 RES     
   28753 H6       -1050.4711  -814.2344   949.2786 H6            1 RES     
   28754 H6       -1050.4205  -813.0259   950.6127 H6            1 RES     
   28755 H6       -1048.4457  -814.0956   951.6297 H6            1 RES     
   28756 H6       -1048.4646  -815.3788   950.3473 H6            1 RES     
   28757 H6       -1049.8466  -815.2167   951.5023 H6            1 RES     
   28758 H6       -1043.7528  -809.6303   945.7023 H6            1 RES     
   28759 H6       -1043.7026  -811.3305   945.1572 H6            1 RES     
   28760 H6       -1041.6949  -811.5081   945.8133 H6            1 RES     
   28761 H6       -1040.9268  -810.3981   946.8850 H6            1 RES     
   28762 H6       -1041.8510  -813.2695   947.6474 H6            1 RES     
   28763 H6       -1041.0070  -811.8456   949.5023 H6            1 RES     
   28764 H6       -1040.1708  -813.4137   949.3116 H6            1 RES     
   28765 H6       -1038.1703  -812.3962   948.3295 H6            1 RES     
   28766 H6       -1038.9695  -810.8178   948.2060 H6            1 RES     
   28767 H6       -1037.5176  -810.6651   950.0800 H6            1 RES     
   28768 H6       -1039.1656  -810.7315   950.7332 H6            1 RES     
   28769 H6       -1038.8713  -813.1558   951.3007 H6            1 RES     
   28770 H6       -1037.7025  -812.0665   952.1117 H6            1 RES     
   28771 H6       -1037.0819  -813.8611   949.6704 H6            1 RES     
   28772 H6       -1036.6042  -814.1279   951.3771 H6            1 RES     
   28773 H6       -1035.2449  -812.0112   951.3432 H6            1 RES     
   28774 H6       -1034.7061  -813.2120   950.1086 H6            1 RES     
   28775 H6       -1035.6579  -811.7876   949.5937 H6            1 RES     
   28776 H6       -1040.7577  -813.8153   945.6740 H6            1 RES     
   28777 H6       -1039.5780  -814.1815   946.9642 H6            1 RES     
   28778 H6       -1038.4501  -811.8799   946.2754 H6            1 RES     
   28779 H6       -1039.6041  -811.8184   944.9357 H6            1 RES     
   28780 H6       -1037.3720  -812.6124   944.3227 H6            1 RES     
   28781 H6       -1037.4556  -813.9754   945.4905 H6            1 RES     
   28782 H6       -1039.3007  -813.6267   943.0201 H6            1 RES     
   28783 H6       -1039.3262  -814.9896   944.1989 H6            1 RES     
   28784 H6       -1036.9770  -815.6093   943.5578 H6            1 RES     
   28785 H6       -1038.1637  -815.7010   942.2081 H6            1 RES     
   28786 H6       -1036.1789  -813.3794   942.6583 H6            1 RES     
   28787 H6       -1037.3728  -813.4946   941.3165 H6            1 RES     
   28788 H6       -1035.0472  -814.0793   940.6549 H6            1 RES     
   28789 H6       -1034.9966  -815.4063   941.8680 H6            1 RES     
   28790 H6       -1036.8205  -816.6025   940.6042 H6            1 RES     
   28791 H6       -1035.4131  -816.2364   939.5537 H6            1 RES     
   28792 H6       -1036.8979  -815.2216   939.4313 H6            1 RES     
   28793 C0       -1056.0843  -808.9123   947.2378 C0            1 RES     
   28794 C0       -1057.0908  -807.8328   947.8075 C0            1 RES     
   28795 C0       -1056.4435  -806.6859   948.1225 C0            1 RES     
   28796 S1       -1057.4454  -805.4691   948.6992 S1            1 RES     
   28797 C0       -1058.8486  -806.4162   948.5533 C0            1 RES     
   28798 C0       -1058.4675  -807.6981   948.1317 C0            1 RES     
   28799 C0       -1055.0502  -806.8627   947.9448 C0            1 RES     
   28800 C0       -1054.8260  -808.0735   947.4871 C0            1 RES     
   28801 C0       -1053.4211  -808.3708   947.4888 C0            1 RES     
   28802 C0       -1052.6772  -807.3153   947.9841 C0            1 RES     
   28803 S1       -1053.6499  -805.8591   948.4065 S1            1 RES     
   28804 H2       -1059.1912  -808.4650   948.0314 H2            1 RES     
   28805 H2       -1053.0254  -809.3189   947.2771 H2            1 RES     
   28806 N3       -1062.6445  -806.3272   948.3943 N3            1 RES     
   28807 C0       -1061.3543  -806.7590   948.3188 C0            1 RES     
   28808 C0       -1060.2674  -805.9459   948.7367 C0            1 RES     
   28809 C0       -1060.6011  -804.6726   949.2466 C0            1 RES     
   28810 N3       -1059.7010  -803.7613   949.6991 N3            1 RES     
   28811 S1       -1060.6644  -802.5007   950.1559 S1            1 RES     
   28812 N3       -1062.1906  -803.0197   949.8109 N3            1 RES     
   28813 C0       -1061.9653  -804.2629   949.3093 C0            1 RES     
   28814 C0       -1062.9751  -805.1032   948.8741 C0            1 RES     
   28815 H4       -1061.1926  -807.7298   947.8981 H4            1 RES     
   28816 C5       -1062.9668  -800.9596   944.1950 C5            1 RES     
   28817 C5       -1062.0818  -801.3888   945.3651 C5            1 RES     
   28818 C5       -1061.9264  -802.9150   945.4772 C5            1 RES     
   28819 C5       -1061.1675  -803.5410   944.2927 C5            1 RES     
   28820 C5       -1061.0086  -805.0571   944.4836 C5            1 RES     
   28821 C5       -1060.1217  -805.6734   943.3793 C5            1 RES     
   28822 C5       -1059.8605  -807.1964   943.5241 C5            1 RES     
   28823 C5       -1059.3664  -807.5300   944.9328 C5            1 RES     
   28824 C5       -1058.6706  -808.8969   945.1524 C5            1 RES     
   28825 C5       -1059.5288  -810.2192   945.0937 C5            1 RES     
   28826 C5       -1060.3883  -810.2450   946.3880 C5            1 RES     
   28827 C5       -1061.3552  -811.3379   946.8588 C5            1 RES     
   28828 C5       -1061.8902  -810.8241   948.2361 C5            1 RES     
   28829 C5       -1062.8937  -811.6965   948.9882 C5            1 RES     
   28830 C5       -1062.2736  -812.9662   949.5581 C5            1 RES     
   28831 C5       -1057.2091  -808.8896   944.6814 C5            1 RES     
   28832 C0       -1056.2232  -809.5580   945.7251 C0            1 RES     
   28833 C5       -1054.9327  -810.0718   944.9521 C5            1 RES     
   28834 C5       -1054.5256  -811.5776   945.1188 C5            1 RES     
   28835 C5       -1053.6199  -811.8649   946.3510 C5            1 RES     
   28836 C5       -1052.1362  -811.4576   946.1872 C5            1 RES     
   28837 C5       -1051.3415  -811.4926   947.5073 C5            1 RES     
   28838 C5       -1051.0688  -812.8944   948.0749 C5            1 RES     
   28839 C5       -1050.1865  -813.7895   947.1832 C5            1 RES     
   28840 C5       -1048.8065  -813.1871   946.9009 C5            1 RES     
   28841 C5       -1053.9684  -812.2260   943.7924 C5            1 RES     
   28842 C5       -1052.9203  -811.4082   942.9882 C5            1 RES     
   28843 C5       -1052.2441  -812.1871   941.8376 C5            1 RES     
   28844 C5       -1053.1958  -812.6737   940.7266 C5            1 RES     
   28845 C5       -1052.4579  -813.3940   939.5714 C5            1 RES     
   28846 C5       -1051.5362  -812.4645   938.7514 C5            1 RES     
   28847 C5       -1050.7881  -813.1746   937.6070 C5            1 RES     
   28848 C5       -1051.7051  -813.7252   936.5148 C5            1 RES     
   28849 H6       -1062.5181  -801.2493   943.2236 H6            1 RES     
   28850 H6       -1063.0799  -799.8550   944.2033 H6            1 RES     
   28851 H6       -1063.9737  -801.4192   944.2891 H6            1 RES     
   28852 H6       -1061.0826  -800.9092   945.2743 H6            1 RES     
   28853 H6       -1062.5554  -801.0204   946.3013 H6            1 RES     
   28854 H6       -1061.3519  -803.1228   946.4077 H6            1 RES     
   28855 H6       -1062.9297  -803.3819   945.5803 H6            1 RES     
   28856 H6       -1060.1607  -803.0693   944.2378 H6            1 RES     
   28857 H6       -1061.7016  -803.3584   943.3379 H6            1 RES     
   28858 H6       -1060.5234  -805.2092   945.4712 H6            1 RES     
   28859 H6       -1062.0061  -805.5461   944.4923 H6            1 RES     
   28860 H6       -1060.5651  -805.4791   942.3791 H6            1 RES     
   28861 H6       -1059.1366  -805.1565   943.4204 H6            1 RES     
   28862 H6       -1060.7779  -807.7872   943.3146 H6            1 RES     
   28863 H6       -1059.0876  -807.4644   942.7717 H6            1 RES     
   28864 H6       -1060.2197  -807.4217   945.6280 H6            1 RES     
   28865 H6       -1058.6290  -806.7504   945.2315 H6            1 RES     
   28866 H6       -1058.4544  -808.8582   946.1577 H6            1 RES     
   28867 H6       -1060.1318  -810.2624   944.1625 H6            1 RES     
   28868 H6       -1058.8588  -811.1065   945.1302 H6            1 RES     
   28869 H6       -1059.6359  -810.2700   947.1985 H6            1 RES     
   28870 H6       -1060.9787  -809.3134   946.3729 H6            1 RES     
   28871 H6       -1060.8183  -812.3040   946.9760 H6            1 RES     
   28872 H6       -1062.1928  -811.4581   946.1410 H6            1 RES     
   28873 H6       -1061.0387  -810.6238   948.9289 H6            1 RES     
   28874 H6       -1062.4019  -809.8530   948.0570 H6            1 RES     
   28875 H6       -1063.7623  -811.9288   948.3393 H6            1 RES     
   28876 H6       -1063.2582  -811.0999   949.8564 H6            1 RES     
   28877 H6       -1061.4296  -812.7093   950.2362 H6            1 RES     
   28878 H6       -1061.9114  -813.6274   948.7473 H6            1 RES     
   28879 H6       -1063.0408  -813.5049   950.1544 H6            1 RES     
   28880 H6       -1056.8190  -807.8566   944.5537 H6            1 RES     
   28881 H6       -1057.2144  -809.3604   943.6746 H6            1 RES     
   28882 H6       -1055.2166  -810.0375   943.8831 H6            1 RES     
   28883 H6       -1054.0794  -809.3660   944.9907 H6            1 RES     
   28884 H6       -1055.4729  -812.1288   945.3155 H6            1 RES     
   28885 H6       -1054.0796  -811.3567   947.2242 H6            1 RES     
   28886 H6       -1053.6354  -812.9562   946.5615 H6            1 RES     
   28887 H6       -1051.6312  -812.1010   945.4418 H6            1 RES     
   28888 H6       -1052.0838  -810.4235   945.7979 H6            1 RES     
   28889 H6       -1050.3724  -810.9770   947.3495 H6            1 RES     
   28890 H6       -1051.8815  -810.9072   948.2794 H6            1 RES     
   28891 H6       -1052.0316  -813.4097   948.2744 H6            1 RES     
   28892 H6       -1050.5504  -812.7663   949.0504 H6            1 RES     
   28893 H6       -1050.6951  -814.0097   946.2222 H6            1 RES     
   28894 H6       -1050.0388  -814.7537   947.7148 H6            1 RES     
   28895 H6       -1048.2789  -812.9612   947.8522 H6            1 RES     
   28896 H6       -1048.1975  -813.9096   946.3191 H6            1 RES     
   28897 H6       -1048.8882  -812.2597   946.2973 H6            1 RES     
   28898 H6       -1054.8253  -812.3730   943.1000 H6            1 RES     
   28899 H6       -1053.5737  -813.2359   944.0378 H6            1 RES     
   28900 H6       -1052.0944  -811.0707   943.6285 H6            1 RES     
   28901 H6       -1053.3935  -810.4916   942.5762 H6            1 RES     
   28902 H6       -1051.4983  -811.4955   941.3978 H6            1 RES     
   28903 H6       -1051.6979  -813.0606   942.2576 H6            1 RES     
   28904 H6       -1053.7700  -811.8174   940.3109 H6            1 RES     
   28905 H6       -1053.9117  -813.3952   941.1701 H6            1 RES     
   28906 H6       -1051.8703  -814.2463   939.9777 H6            1 RES     
   28907 H6       -1053.2352  -813.8055   938.8909 H6            1 RES     
   28908 H6       -1050.7559  -812.0418   939.4148 H6            1 RES     
   28909 H6       -1052.1316  -811.6241   938.3322 H6            1 RES     
   28910 H6       -1050.1086  -812.4329   937.1317 H6            1 RES     
   28911 H6       -1050.1641  -813.9978   938.0167 H6            1 RES     
   28912 H6       -1052.3677  -814.5211   936.9099 H6            1 RES     
   28913 H6       -1051.0854  -814.1682   935.7057 H6            1 RES     
   28914 H6       -1052.3206  -812.9096   936.0796 H6            1 RES     
   28915 C0       -1068.3469  -805.3760   948.5403 C0            1 RES     
   28916 C0       -1069.0040  -804.3037   949.5001 C0            1 RES     
   28917 C0       -1068.0873  -803.3960   949.9117 C0            1 RES     
   28918 S1       -1068.7096  -802.1950   950.9053 S1            1 RES     
   28919 C0       -1070.2886  -802.8195   950.8417 C0            1 RES     
   28920 C0       -1070.2568  -804.0109   950.1029 C0            1 RES     
   28921 C0       -1066.8059  -803.7667   949.4377 C0            1 RES     
   28922 C0       -1066.9157  -804.8541   948.7089 C0            1 RES     
   28923 C0       -1065.6223  -805.3846   948.3804 C0            1 RES     
   28924 C0       -1064.6053  -804.6240   948.9281 C0            1 RES     
   28925 S1       -1065.1710  -803.1627   949.8166 S1            1 RES     
   28926 H2       -1071.1343  -804.5931   949.9894 H2            1 RES     
   28927 H2       -1065.4741  -806.3095   947.9083 H2            1 RES     
   28928 N3       -1073.9587  -802.0320   951.4356 N3            1 RES     
   28929 C0       -1072.8162  -802.6526   951.0276 C0            1 RES     
   28930 C0       -1071.5311  -802.1653   951.3858 C0            1 RES     
   28931 C0       -1071.5059  -801.0114   952.1985 C0            1 RES     
   28932 N3       -1070.3752  -800.4058   952.6457 N3            1 RES     
   28933 S1       -1070.9687  -799.1411   953.5257 S1            1 RES     
   28934 N3       -1072.6043  -799.2879   953.3817 N3            1 RES     
   28935 C0       -1072.7265  -800.3959   952.6038 C0            1 RES     
   28936 C0       -1073.9455  -800.9186   952.2088 C0            1 RES     
   28937 H4       -1072.9296  -803.5086   950.3952 H4            1 RES     
   28938 C5       -1073.7431  -795.8495   948.5582 C5            1 RES     
   28939 C5       -1072.8073  -796.6925   949.4245 C5            1 RES     
   28940 C5       -1072.9669  -798.2046   949.1917 C5            1 RES     
   28941 C5       -1072.5428  -798.6542   947.7814 C5            1 RES     
   28942 C5       -1072.6851  -800.1760   947.6256 C5            1 RES     
   28943 C5       -1072.1235  -800.6578   946.2698 C5            1 RES     
   28944 C5       -1072.1753  -802.1931   946.0487 C5            1 RES     
   28945 C5       -1071.5614  -802.9330   947.2384 C5            1 RES     
   28946 C5       -1071.1492  -804.4131   947.0375 C5            1 RES     
   28947 C5       -1072.2691  -805.5122   946.8767 C5            1 RES     
   28948 C5       -1072.9135  -805.6938   948.2790 C5            1 RES     
   28949 C5       -1074.0112  -806.6806   948.6942 C5            1 RES     
   28950 C5       -1074.2146  -806.4232   950.2237 C5            1 RES     
   28951 C5       -1075.2590  -807.2596   950.9608 C5            1 RES     
   28952 C5       -1074.8474  -808.7167   951.1305 C5            1 RES     
   28953 C5       -1069.8058  -804.5501   946.3064 C5            1 RES     
   28954 C0       -1068.8424  -805.6093   946.9832 C0            1 RES     
   28955 C5       -1067.8203  -806.1426   945.8888 C5            1 RES     
   28956 C5       -1067.7243  -807.6921   945.6643 C5            1 RES     
   28957 C5       -1066.7290  -808.4180   946.6150 C5            1 RES     
   28958 C5       -1065.2335  -808.2497   946.2559 C5            1 RES     
   28959 C5       -1064.2785  -808.7359   947.3638 C5            1 RES     
   28960 C5       -1064.2309  -810.2579   947.5711 C5            1 RES     
   28961 C5       -1063.7019  -811.0557   946.3635 C5            1 RES     
   28962 C5       -1062.2823  -810.6548   945.9503 C5            1 RES     
   28963 C5       -1067.5207  -808.0942   944.1520 C5            1 RES     
   28964 C5       -1066.4526  -807.3053   943.3452 C5            1 RES     
   28965 C5       -1066.1360  -807.8946   941.9522 C5            1 RES     
   28966 C5       -1067.3231  -807.9290   940.9692 C5            1 RES     
   28967 C5       -1066.9351  -808.4720   939.5719 C5            1 RES     
   28968 C5       -1065.9676  -807.5504   938.7970 C5            1 RES     
   28969 C5       -1065.5659  -808.0881   937.4101 C5            1 RES     
   28970 C5       -1066.7304  -808.1941   936.4255 C5            1 RES     
   28971 H6       -1073.5152  -795.9741   947.4805 H6            1 RES     
   28972 H6       -1073.6150  -794.7763   948.8127 H6            1 RES     
   28973 H6       -1074.7997  -796.1347   948.7483 H6            1 RES     
   28974 H6       -1071.7534  -796.3877   949.2432 H6            1 RES     
   28975 H6       -1073.0477  -796.4800   950.4892 H6            1 RES     
   28976 H6       -1072.3190  -798.7248   949.9324 H6            1 RES     
   28977 H6       -1074.0203  -798.4995   949.3880 H6            1 RES     
   28978 H6       -1071.4779  -798.3668   947.6315 H6            1 RES     
   28979 H6       -1073.1606  -798.1594   947.0044 H6            1 RES     
   28980 H6       -1072.1032  -800.6409   948.4497 H6            1 RES     
   28981 H6       -1073.7516  -800.4706   947.7259 H6            1 RES     
   28982 H6       -1072.6578  -800.1569   945.4341 H6            1 RES     
   28983 H6       -1071.0557  -800.3462   946.2253 H6            1 RES     
   28984 H6       -1073.2184  -802.5472   945.9034 H6            1 RES     
   28985 H6       -1071.5974  -802.4058   945.1235 H6            1 RES     
   28986 H6       -1072.2595  -802.8452   948.0917 H6            1 RES     
   28987 H6       -1070.6386  -802.3882   947.5424 H6            1 RES     
   28988 H6       -1070.7836  -804.6527   947.9691 H6            1 RES     
   28989 H6       -1072.9982  -805.2266   946.0896 H6            1 RES     
   28990 H6       -1071.8063  -806.4860   946.6026 H6            1 RES     
   28991 H6       -1072.0725  -806.0420   948.9077 H6            1 RES     
   28992 H6       -1073.2868  -804.6967   948.5674 H6            1 RES     
   28993 H6       -1073.6819  -807.7255   948.5070 H6            1 RES     
   28994 H6       -1074.9518  -806.4783   948.1412 H6            1 RES     
   28995 H6       -1073.2472  -806.5454   950.7662 H6            1 RES     
   28996 H6       -1074.5277  -805.3631   950.3476 H6            1 RES     
   28997 H6       -1076.2433  -807.1753   950.4572 H6            1 RES     
   28998 H6       -1075.3553  -806.8320   951.9857 H6            1 RES     
   28999 H6       -1073.8772  -808.7802   951.6719 H6            1 RES     
   29000 H6       -1074.7586  -809.2193   950.1480 H6            1 RES     
   29001 H6       -1075.6153  -809.2388   951.7406 H6            1 RES     
   29002 H6       -1069.2272  -803.6011   946.3192 H6            1 RES     
   29003 H6       -1070.0603  -804.7599   945.2450 H6            1 RES     
   29004 H6       -1068.2450  -805.8061   944.9240 H6            1 RES     
   29005 H6       -1066.8398  -805.6268   945.9058 H6            1 RES     
   29006 H6       -1068.7278  -808.0997   945.9227 H6            1 RES     
   29007 H6       -1066.9355  -808.0594   947.6450 H6            1 RES     
   29008 H6       -1066.9461  -809.5079   946.5980 H6            1 RES     
   29009 H6       -1064.9934  -808.7758   945.3125 H6            1 RES     
   29010 H6       -1065.0194  -807.1784   946.0826 H6            1 RES     
   29011 H6       -1063.2559  -808.3755   947.1313 H6            1 RES     
   29012 H6       -1064.5609  -808.2654   948.3278 H6            1 RES     
   29013 H6       -1065.2414  -810.6290   947.8425 H6            1 RES     
   29014 H6       -1063.5589  -810.4580   948.4342 H6            1 RES     
   29015 H6       -1064.3821  -810.9488   945.4936 H6            1 RES     
   29016 H6       -1063.6868  -812.1292   946.6492 H6            1 RES     
   29017 H6       -1061.5840  -810.7574   946.8083 H6            1 RES     
   29018 H6       -1061.9345  -811.3136   945.1278 H6            1 RES     
   29019 H6       -1062.2522  -809.6110   945.5752 H6            1 RES     
   29020 H6       -1068.4819  -807.9201   943.6217 H6            1 RES     
   29021 H6       -1067.3191  -809.1866   944.1063 H6            1 RES     
   29022 H6       -1065.4884  -807.2795   943.8701 H6            1 RES     
   29023 H6       -1066.7746  -806.2488   943.2270 H6            1 RES     
   29024 H6       -1065.3330  -807.2599   941.5277 H6            1 RES     
   29025 H6       -1065.7331  -808.9246   942.0729 H6            1 RES     
   29026 H6       -1067.7560  -806.9115   940.8545 H6            1 RES     
   29027 H6       -1068.1032  -808.5983   941.3855 H6            1 RES     
   29028 H6       -1066.4898  -809.4857   939.6757 H6            1 RES     
   29029 H6       -1067.8742  -808.5674   938.9839 H6            1 RES     
   29030 H6       -1065.0257  -807.4408   939.3702 H6            1 RES     
   29031 H6       -1066.4248  -806.5437   938.6798 H6            1 RES     
   29032 H6       -1064.8214  -807.3855   936.9744 H6            1 RES     
   29033 H6       -1065.0787  -809.0812   937.5162 H6            1 RES     
   29034 H6       -1067.4819  -808.9324   936.7699 H6            1 RES     
   29035 H6       -1066.3462  -808.5337   935.4396 H6            1 RES     
   29036 H6       -1067.2147  -807.2037   936.2917 H6            1 RES     
   29037 C0       -1079.2405  -800.1593   952.8636 C0            1 RES     
   29038 C0       -1079.5041  -799.2477   954.1294 C0            1 RES     
   29039 C0       -1078.3641  -798.6388   954.5334 C0            1 RES     
   29040 S1       -1078.5616  -797.6183   955.8512 S1            1 RES     
   29041 C0       -1080.2292  -797.9234   955.9661 C0            1 RES     
   29042 C0       -1080.5623  -798.8918   955.0081 C0            1 RES     
   29043 C0       -1077.2759  -799.1048   953.7570 C0            1 RES     
   29044 C0       -1077.7220  -799.9514   952.8570 C0            1 RES     
   29045 C0       -1076.6349  -800.6067   952.1855 C0            1 RES     
   29046 C0       -1075.4094  -800.1881   952.6710 C0            1 RES     
   29047 S1       -1075.5121  -798.9040   953.9300 S1            1 RES     
   29048 H2       -1081.5509  -799.2675   954.9490 H2            1 RES     
   29049 H2       -1076.7592  -801.4042   951.5155 H2            1 RES     
   29050 N3       -1083.5173  -796.6694   957.4008 N3            1 RES     
   29051 C0       -1082.6070  -797.3655   956.6635 C0            1 RES     
   29052 C0       -1081.2089  -797.2100   956.8599 C0            1 RES     
   29053 C0       -1080.8180  -796.3050   957.8703 C0            1 RES     
   29054 N3       -1079.5306  -796.0306   958.2059 N3            1 RES     
   29055 S1       -1079.7035  -794.9274   959.4220 S1            1 RES     
   29056 N3       -1081.3356  -794.7470   959.5678 N3            1 RES     
   29057 C0       -1081.8053  -795.5995   958.6189 C0            1 RES     
   29058 C0       -1083.1525  -795.7916   958.3671 C0            1 RES     
   29059 H4       -1082.9928  -798.0132   955.9038 H4            1 RES     
   29060 C5       -1082.4129  -790.1165   955.8552 C5            1 RES     
   29061 C5       -1081.5615  -791.2916   956.3357 C5            1 RES     
   29062 C5       -1082.0731  -792.6531   955.8351 C5            1 RES     
   29063 C5       -1081.9679  -792.8220   954.3082 C5            1 RES     
   29064 C5       -1082.4536  -794.2140   953.8762 C5            1 RES     
   29065 C5       -1082.2145  -794.4506   952.3687 C5            1 RES     
   29066 C5       -1082.6253  -795.8559   951.8539 C5            1 RES     
   29067 C5       -1082.0148  -796.9530   952.7277 C5            1 RES     
   29068 C5       -1081.9627  -798.3916   952.1545 C5            1 RES     
   29069 C5       -1083.3029  -799.2075   951.9913 C5            1 RES     
   29070 C5       -1083.7568  -799.6013   953.4243 C5            1 RES     
   29071 C5       -1084.9664  -800.4505   953.8327 C5            1 RES     
   29072 C5       -1084.8818  -800.5323   955.3926 C5            1 RES     
   29073 C5       -1085.9603  -801.3237   956.1304 C5            1 RES     
   29074 C5       -1085.8491  -802.8283   955.9178 C5            1 RES     
   29075 C5       -1080.8028  -798.5841   951.1669 C5            1 RES     
   29076 C0       -1079.9988  -799.9256   951.4162 C0            1 RES     
   29077 C5       -1079.2874  -800.3541   950.0609 C5            1 RES     
   29078 C5       -1079.5590  -801.7981   949.5115 C5            1 RES     
   29079 C5       -1078.6126  -802.8918   950.0856 C5            1 RES     
   29080 C5       -1077.1855  -802.9076   949.4881 C5            1 RES     
   29081 C5       -1076.2035  -803.8025   950.2695 C5            1 RES     
   29082 C5       -1076.4522  -805.3143   950.1496 C5            1 RES     
   29083 C5       -1076.2902  -805.8824   948.7263 C5            1 RES     
   29084 C5       -1074.8946  -805.6497   948.1388 C5            1 RES     
   29085 C5       -1079.6717  -801.8587   947.9386 C5            1 RES     
   29086 C5       -1078.5908  -801.1004   947.1197 C5            1 RES     
   29087 C5       -1078.6168  -801.3879   945.6016 C5            1 RES     
   29088 C5       -1079.9156  -800.9794   944.8787 C5            1 RES     
   29089 C5       -1079.8634  -801.2342   943.3521 C5            1 RES     
   29090 C5       -1078.8466  -800.3390   942.6101 C5            1 RES     
   29091 C5       -1078.7784  -800.5936   941.0921 C5            1 RES     
   29092 C5       -1080.0711  -800.2571   940.3486 C5            1 RES     
   29093 H6       -1082.3787  -790.0194   954.7514 H6            1 RES     
   29094 H6       -1082.0223  -789.1740   956.2934 H6            1 RES     
   29095 H6       -1083.4661  -790.2491   956.1824 H6            1 RES     
   29096 H6       -1080.5054  -791.1418   956.0215 H6            1 RES     
   29097 H6       -1081.5910  -791.2993   957.4473 H6            1 RES     
   29098 H6       -1081.4493  -793.4396   956.3161 H6            1 RES     
   29099 H6       -1083.1243  -792.7971   956.1657 H6            1 RES     
   29100 H6       -1080.9003  -792.6982   954.0184 H6            1 RES     
   29101 H6       -1082.5735  -792.0564   953.7814 H6            1 RES     
   29102 H6       -1081.8692  -794.9558   954.4611 H6            1 RES     
   29103 H6       -1083.5316  -794.3325   954.1172 H6            1 RES     
   29104 H6       -1082.7469  -793.6800   951.7709 H6            1 RES     
   29105 H6       -1081.1233  -794.3293   952.1845 H6            1 RES     
   29106 H6       -1083.7297  -795.9771   951.8424 H6            1 RES     
   29107 H6       -1082.2493  -795.9405   950.8114 H6            1 RES     
   29108 H6       -1082.5442  -796.9496   953.6988 H6            1 RES     
   29109 H6       -1080.9624  -796.6662   952.9534 H6            1 RES     
   29110 H6       -1081.5233  -798.9059   952.9300 H6            1 RES     
   29111 H6       -1084.0621  -798.6200   951.4336 H6            1 RES     
   29112 H6       -1083.1045  -800.1538   951.4412 H6            1 RES     
   29113 H6       -1082.9262  -800.2306   953.7957 H6            1 RES     
   29114 H6       -1083.8616  -798.6518   953.9758 H6            1 RES     
   29115 H6       -1084.8994  -801.4621   953.3771 H6            1 RES     
   29116 H6       -1085.9131  -799.9612   953.5235 H6            1 RES     
   29117 H6       -1083.8937  -800.9474   955.7029 H6            1 RES     
   29118 H6       -1084.9394  -799.4941   955.7873 H6            1 RES     
   29119 H6       -1086.9672  -800.9512   955.8529 H6            1 RES     
   29120 H6       -1085.8105  -801.1418   957.2199 H6            1 RES     
   29121 H6       -1084.8459  -803.1874   956.2385 H6            1 RES     
   29122 H6       -1086.0159  -803.0907   954.8552 H6            1 RES     
   29123 H6       -1086.6121  -803.3376   956.5446 H6            1 RES     
   29124 H6       -1080.0393  -797.7817   951.2613 H6            1 RES     
   29125 H6       -1081.2501  -798.4878   950.1540 H6            1 RES     
   29126 H6       -1079.7681  -799.7291   949.2846 H6            1 RES     
   29127 H6       -1078.2278  -800.0370   949.9940 H6            1 RES     
   29128 H6       -1080.5770  -802.0732   949.8692 H6            1 RES     
   29129 H6       -1078.5832  -802.7577   951.1871 H6            1 RES     
   29130 H6       -1079.0576  -803.8912   949.8891 H6            1 RES     
   29131 H6       -1077.2053  -803.2282   948.4292 H6            1 RES     
   29132 H6       -1076.7754  -801.8803   949.4987 H6            1 RES     
   29133 H6       -1075.1733  -803.5820   949.9234 H6            1 RES     
   29134 H6       -1076.2333  -803.5325   951.3450 H6            1 RES     
   29135 H6       -1077.4672  -805.5565   950.5285 H6            1 RES     
   29136 H6       -1075.7185  -805.8282   950.8085 H6            1 RES     
   29137 H6       -1077.0527  -805.4545   948.0435 H6            1 RES     
   29138 H6       -1076.4628  -806.9786   948.7793 H6            1 RES     
   29139 H6       -1074.1155  -806.0738   948.8077 H6            1 RES     
   29140 H6       -1074.8211  -806.1447   947.1483 H6            1 RES     
   29141 H6       -1074.6979  -804.5686   947.9854 H6            1 RES     
   29142 H6       -1080.6409  -801.3981   947.6494 H6            1 RES     
   29143 H6       -1079.7172  -802.9269   947.6338 H6            1 RES     
   29144 H6       -1077.5767  -801.3693   947.4439 H6            1 RES     
   29145 H6       -1078.6934  -800.0064   947.2831 H6            1 RES     
   29146 H6       -1077.7684  -800.8213   945.1691 H6            1 RES     
   29147 H6       -1078.4300  -802.4712   945.4306 H6            1 RES     
   29148 H6       -1080.1332  -799.9042   945.0587 H6            1 RES     
   29149 H6       -1080.7505  -801.5812   945.2918 H6            1 RES     
   29150 H6       -1079.6347  -802.3054   943.1601 H6            1 RES     
   29151 H6       -1080.8775  -801.0213   942.9484 H6            1 RES     
   29152 H6       -1077.8290  -800.5354   943.0020 H6            1 RES     
   29153 H6       -1079.0903  -799.2692   942.7902 H6            1 RES     
   29154 H6       -1077.9737  -799.9492   940.6739 H6            1 RES     
   29155 H6       -1078.5045  -801.6530   940.8983 H6            1 RES     
   29156 H6       -1080.9037  -800.9127   940.6732 H6            1 RES     
   29157 H6       -1079.9182  -800.4147   939.2592 H6            1 RES     
   29158 H6       -1080.3468  -799.1942   940.5147 H6            1 RES     
   29159 C0       -1088.0067  -794.2945   960.1663 C0            1 RES     
   29160 C0       -1087.8795  -793.6780   961.6178 C0            1 RES     
   29161 C0       -1086.5888  -793.3918   961.9109 C0            1 RES     
   29162 S1       -1086.3668  -792.6953   963.4217 S1            1 RES     
   29163 C0       -1088.0255  -792.7220   963.7898 C0            1 RES     
   29164 C0       -1088.6955  -793.3614   962.7369 C0            1 RES     
   29165 C0       -1085.7522  -793.8431   960.8618 C0            1 RES     
   29166 C0       -1086.4969  -794.3601   959.9110 C0            1 RES     
   29167 C0       -1085.6863  -795.0171   958.9243 C0            1 RES     
   29168 C0       -1084.3417  -794.9471   959.2404 C0            1 RES     
   29169 S1       -1083.9806  -794.0012   960.7303 S1            1 RES     
   29170 H2       -1089.7392  -793.5332   962.7934 H2            1 RES     
   29171 H2       -1086.0757  -795.5981   958.1426 H2            1 RES     
   29172 N3       -1090.7208  -791.2889   966.0534 N3            1 RES     
   29173 C0       -1090.0993  -791.9383   965.0292 C0            1 RES     
   29174 C0       -1088.6870  -792.0812   964.9812 C0            1 RES     
   29175 C0       -1087.9669  -791.5250   966.0604 C0            1 RES     
   29176 N3       -1086.6155  -791.5679   966.1914 N3            1 RES     
   29177 S1       -1086.3670  -790.7725   967.6167 S1            1 RES     
   29178 N3       -1087.8831  -790.3489   968.1066 N3            1 RES     
   29179 C0       -1088.6589  -790.8558   967.1121 C0            1 RES     
   29180 C0       -1090.0381  -790.7436   967.0899 C0            1 RES     
   29181 H4       -1090.7225  -792.3091   964.2421 H4            1 RES     
   29182 C5       -1088.4822  -784.8541   965.6913 C5            1 RES     
   29183 C5       -1087.8402  -786.2401   965.7501 C5            1 RES     
   29184 C5       -1088.6991  -787.3324   965.0905 C5            1 RES     
   29185 C5       -1088.8591  -787.1495   963.5701 C5            1 RES     
   29186 C5       -1089.6894  -788.2919   962.9651 C5            1 RES     
   29187 C5       -1089.7318  -788.2017   961.4238 C5            1 RES     
   29188 C5       -1090.5048  -789.3502   960.7223 C5            1 RES     
   29189 C5       -1090.0207  -790.7129   961.2209 C5            1 RES     
   29190 C5       -1090.3624  -791.9604   960.3677 C5            1 RES     
   29191 C5       -1091.8551  -792.4665   960.3022 C5            1 RES     
   29192 C5       -1092.1659  -793.1037   961.6849 C5            1 RES     
   29193 C5       -1093.4551  -793.8003   962.1362 C5            1 RES     
   29194 C5       -1093.1605  -794.2638   963.6010 C5            1 RES     
   29195 C5       -1094.2621  -795.0063   964.3552 C5            1 RES     
   29196 C5       -1094.5077  -796.4129   963.8235 C5            1 RES     
   29197 C5       -1089.4293  -792.1128   959.1578 C5            1 RES     
   29198 C0       -1088.9028  -793.5945   958.9699 C0            1 RES     
   29199 C5       -1088.5076  -793.8066   957.4449 C5            1 RES     
   29200 C5       -1089.1596  -795.0082   956.6757 C5            1 RES     
   29201 C5       -1088.3946  -796.3553   956.8226 C5            1 RES     
   29202 C5       -1087.1081  -796.4784   955.9719 C5            1 RES     
   29203 C5       -1086.2357  -797.6910   956.3516 C5            1 RES     
   29204 C5       -1086.8166  -799.0634   955.9765 C5            1 RES     
   29205 C5       -1086.9918  -799.2965   954.4633 C5            1 RES     
   29206 C5       -1085.6812  -799.1789   953.6788 C5            1 RES     
   29207 C5       -1089.5136  -794.6727   955.1749 C5            1 RES     
   29208 C5       -1088.4288  -793.9429   954.3356 C5            1 RES     
   29209 C5       -1088.7395  -793.8525   952.8246 C5            1 RES     
   29210 C5       -1090.0133  -793.0629   952.4628 C5            1 RES     
   29211 C5       -1090.2428  -792.9529   950.9354 C5            1 RES     
   29212 C5       -1089.1792  -792.0994   950.2100 C5            1 RES     
   29213 C5       -1089.3920  -791.9940   948.6877 C5            1 RES     
   29214 C5       -1090.6781  -791.2696   948.2905 C5            1 RES     
   29215 H6       -1088.5914  -784.5051   964.6448 H6            1 RES     
   29216 H6       -1087.8389  -784.1260   966.2289 H6            1 RES     
   29217 H6       -1089.4793  -784.8741   966.1806 H6            1 RES     
   29218 H6       -1086.8347  -786.2072   965.2763 H6            1 RES     
   29219 H6       -1087.7061  -786.5064   966.8214 H6            1 RES     
   29220 H6       -1088.1937  -788.3074   965.2726 H6            1 RES     
   29221 H6       -1089.6962  -787.3645   965.5804 H6            1 RES     
   29222 H6       -1087.8445  -787.1493   963.1122 H6            1 RES     
   29223 H6       -1089.3582  -786.1869   963.3364 H6            1 RES     
   29224 H6       -1089.1972  -789.2419   963.2637 H6            1 RES     
   29225 H6       -1090.7202  -788.2736   963.3793 H6            1 RES     
   29226 H6       -1090.1695  -787.2302   961.1088 H6            1 RES     
   29227 H6       -1088.6793  -788.2331   961.0623 H6            1 RES     
   29228 H6       -1091.5989  -789.2699   960.8986 H6            1 RES     
   29229 H6       -1090.3137  -789.2492   959.6322 H6            1 RES     
   29230 H6       -1090.3877  -790.8476   962.2554 H6            1 RES     
   29231 H6       -1088.9097  -790.6768   961.2939 H6            1 RES     
   29232 H6       -1089.9335  -792.7129   960.9232 H6            1 RES     
   29233 H6       -1092.5451  -791.6397   960.0320 H6            1 RES     
   29234 H6       -1091.9470  -793.2747   959.5433 H6            1 RES     
   29235 H6       -1091.4434  -793.9386   961.7540 H6            1 RES     
   29236 H6       -1091.9827  -792.3091   962.4277 H6            1 RES     
   29237 H6       -1093.6739  -794.6703   961.4801 H6            1 RES     
   29238 H6       -1094.3104  -793.0935   962.1206 H6            1 RES     
   29239 H6       -1092.2492  -794.9071   963.6248 H6            1 RES     
   29240 H6       -1092.9359  -793.3555   964.2023 H6            1 RES     
   29241 H6       -1095.1958  -794.4082   964.3578 H6            1 RES     
   29242 H6       -1093.9177  -795.1175   965.4095 H6            1 RES     
   29243 H6       -1093.5683  -797.0079   963.8658 H6            1 RES     
   29244 H6       -1094.8818  -796.3820   962.7820 H6            1 RES     
   29245 H6       -1095.2607  -796.9148   964.4681 H6            1 RES     
   29246 H6       -1088.5067  -791.5023   959.2652 H6            1 RES     
   29247 H6       -1089.9903  -791.7019   958.2908 H6            1 RES     
   29248 H6       -1088.9529  -792.9408   956.9190 H6            1 RES     
   29249 H6       -1087.4264  -793.6733   957.2419 H6            1 RES     
   29250 H6       -1090.1486  -795.1778   957.1584 H6            1 RES     
   29251 H6       -1088.1748  -796.4940   957.9018 H6            1 RES     
   29252 H6       -1089.0670  -797.1855   956.5160 H6            1 RES     
   29253 H6       -1087.3522  -796.5296   954.8938 H6            1 RES     
   29254 H6       -1086.4910  -795.5711   956.1125 H6            1 RES     
   29255 H6       -1085.2449  -797.5785   955.8665 H6            1 RES     
   29256 H6       -1086.0479  -797.6833   957.4448 H6            1 RES     
   29257 H6       -1087.7926  -799.2071   956.4857 H6            1 RES     
   29258 H6       -1086.1206  -799.8394   956.3637 H6            1 RES     
   29259 H6       -1087.7375  -798.5919   954.0411 H6            1 RES     
   29260 H6       -1087.3849  -800.3262   954.3242 H6            1 RES     
   29261 H6       -1084.9206  -799.8795   954.0852 H6            1 RES     
   29262 H6       -1085.8623  -799.4295   952.6130 H6            1 RES     
   29263 H6       -1085.2829  -798.1440   953.7138 H6            1 RES     
   29264 H6       -1090.3939  -793.9942   955.1770 H6            1 RES     
   29265 H6       -1089.8309  -795.6129   954.6735 H6            1 RES     
   29266 H6       -1087.4590  -794.4544   954.3975 H6            1 RES     
   29267 H6       -1088.2699  -792.9185   954.7348 H6            1 RES     
   29268 H6       -1087.8631  -793.3569   952.3618 H6            1 RES     
   29269 H6       -1088.8160  -794.8796   952.4040 H6            1 RES     
   29270 H6       -1089.9670  -792.0403   952.8962 H6            1 RES     
   29271 H6       -1090.8870  -793.5899   952.8972 H6            1 RES     
   29272 H6       -1090.2792  -793.9709   950.4890 H6            1 RES     
   29273 H6       -1091.2361  -792.4760   950.7857 H6            1 RES     
   29274 H6       -1088.1806  -792.5584   950.3511 H6            1 RES     
   29275 H6       -1089.1593  -791.0774   950.6475 H6            1 RES     
   29276 H6       -1088.5389  -791.4199   948.2630 H6            1 RES     
   29277 H6       -1089.3825  -793.0081   948.2335 H6            1 RES     
   29278 H6       -1091.5744  -791.8273   948.6284 H6            1 RES     
   29279 H6       -1090.7251  -791.1881   947.1832 H6            1 RES     
   29280 H6       -1090.6928  -790.2451   948.7192 H6            1 RES     
   29281 C0       -1094.1400  -788.8906   970.0534 C0            1 RES     
   29282 C0       -1093.6710  -788.6686   971.5480 C0            1 RES     
   29283 C0       -1092.3203  -788.6908   971.6400 C0            1 RES     
   29284 S1       -1091.7339  -788.4231   973.1896 S1            1 RES     
   29285 C0       -1093.2869  -788.2456   973.8559 C0            1 RES     
   29286 C0       -1094.2261  -788.4891   972.8434 C0            1 RES     
   29287 C0       -1091.7638  -789.0193   970.3804 C0            1 RES     
   29288 C0       -1092.7337  -789.1571   969.5052 C0            1 RES     
   29289 C0       -1092.2372  -789.6923   968.2686 C0            1 RES     
   29290 C0       -1090.8771  -789.9360   968.3284 C0            1 RES     
   29291 S1       -1090.1061  -789.4494   969.8820 S1            1 RES     
   29292 H2       -1095.2623  -788.4839   973.0630 H2            1 RES     
   29293 H2       -1092.8528  -789.9936   967.4746 H2            1 RES     
   29294 N3       -1095.2491  -786.9421   976.8380 N3            1 RES     
   29295 C0       -1094.9390  -787.4281   975.6033 C0            1 RES     
   29296 C0       -1093.6129  -787.8005   975.2571 C0            1 RES     
   29297 C0       -1092.6392  -787.6515   976.2682 C0            1 RES     
   29298 N3       -1091.3240  -787.9604   976.1260 N3            1 RES     
   29299 S1       -1090.7036  -787.5824   977.6086 S1            1 RES     
   29300 N3       -1092.0047  -787.0286   978.4560 N3            1 RES     
   29301 C0       -1093.0091  -787.1408   977.5470 C0            1 RES     
   29302 C0       -1094.3203  -786.7869   977.8131 C0            1 RES     
   29303 H4       -1095.7363  -787.4863   974.8916 H4            1 RES     
   29304 C5       -1091.7658  -781.0999   977.3705 C5            1 RES     
   29305 C5       -1091.4333  -782.5505   977.0217 C5            1 RES     
   29306 C5       -1092.5935  -783.2871   976.3309 C5            1 RES     
   29307 C5       -1092.9336  -782.7231   974.9391 C5            1 RES     
   29308 C5       -1094.0688  -783.5255   974.2851 C5            1 RES     
   29309 C5       -1094.3181  -783.0658   972.8317 C5            1 RES     
   29310 C5       -1095.4136  -783.8612   972.0729 C5            1 RES     
   29311 C5       -1095.1637  -785.3664   972.1813 C5            1 RES     
   29312 C5       -1095.8863  -786.2958   971.1739 C5            1 RES     
   29313 C5       -1097.4456  -786.5024   971.2943 C5            1 RES     
   29314 C5       -1097.6777  -787.3853   972.5518 C5            1 RES     
   29315 C5       -1099.0048  -787.9323   973.0907 C5            1 RES     
   29316 C5       -1098.6031  -788.7747   974.3462 C5            1 RES     
   29317 C5       -1099.7141  -789.4704   975.1306 C5            1 RES     
   29318 C5       -1100.3304  -790.6451   974.3809 C5            1 RES     
   29319 C5       -1095.1965  -786.3174   969.8021 C5            1 RES     
   29320 C0       -1095.0325  -787.7807   969.2191 C0            1 RES     
   29321 C5       -1094.9214  -787.6903   967.6360 C5            1 RES     
   29322 C5       -1095.9214  -788.5415   966.7781 C5            1 RES     
   29323 C5       -1095.4489  -789.9974   966.4982 C5            1 RES     
   29324 C5       -1094.3585  -790.1382   965.4095 C5            1 RES     
   29325 C5       -1093.7191  -791.5397   965.3598 C5            1 RES     
   29326 C5       -1094.6287  -792.6602   964.8318 C5            1 RES     
   29327 C5       -1095.0712  -792.4927   963.3653 C5            1 RES     
   29328 C5       -1093.8964  -792.4236   962.3845 C5            1 RES     
   29329 C5       -1096.4133  -787.8024   965.4734 C5            1 RES     
   29330 C5       -1095.3337  -787.0957   964.6080 C5            1 RES     
   29331 C5       -1095.8376  -786.5959   963.2353 C5            1 RES     
   29332 C5       -1096.9524  -785.5326   963.2931 C5            1 RES     
   29333 C5       -1097.3761  -785.0244   961.8931 C5            1 RES     
   29334 C5       -1096.2737  -784.2228   961.1663 C5            1 RES     
   29335 C5       -1096.6815  -783.7232   959.7671 C5            1 RES     
   29336 C5       -1097.8274  -782.7115   959.7799 C5            1 RES     
   29337 H6       -1091.9512  -780.4987   976.4578 H6            1 RES     
   29338 H6       -1090.9095  -780.6446   977.9113 H6            1 RES     
   29339 H6       -1092.6606  -781.0606   978.0275 H6            1 RES     
   29340 H6       -1090.5253  -782.5826   976.3805 H6            1 RES     
   29341 H6       -1091.2024  -783.0829   977.9703 H6            1 RES     
   29342 H6       -1092.2869  -784.3504   976.2102 H6            1 RES     
   29343 H6       -1093.4909  -783.2595   976.9860 H6            1 RES     
   29344 H6       -1092.0214  -782.7918   974.3048 H6            1 RES     
   29345 H6       -1093.2443  -781.6605   975.0064 H6            1 RES     
   29346 H6       -1093.7525  -784.5904   974.2839 H6            1 RES     
   29347 H6       -1094.9991  -783.4259   974.8842 H6            1 RES     
   29348 H6       -1094.5797  -781.9861   972.8111 H6            1 RES     
   29349 H6       -1093.3618  -783.1943   972.2763 H6            1 RES     
   29350 H6       -1096.4270  -783.6347   972.4684 H6            1 RES     
   29351 H6       -1095.3686  -783.5392   971.0101 H6            1 RES     
   29352 H6       -1095.3941  -785.6766   973.2175 H6            1 RES     
   29353 H6       -1094.0724  -785.5437   972.0456 H6            1 RES     
   29354 H6       -1095.5509  -787.2219   971.4717 H6            1 RES     
   29355 H6       -1097.9751  -785.5275   971.3356 H6            1 RES     
   29356 H6       -1097.8191  -787.0782   970.4189 H6            1 RES     
   29357 H6       -1097.1482  -788.3259   972.3096 H6            1 RES     
   29358 H6       -1097.2212  -786.8346   973.3916 H6            1 RES     
   29359 H6       -1099.4989  -788.5694   972.3257 H6            1 RES     
   29360 H6       -1099.6820  -787.1035   973.3838 H6            1 RES     
   29361 H6       -1097.8570  -789.5546   974.0632 H6            1 RES     
   29362 H6       -1098.1032  -788.0890   975.0653 H6            1 RES     
   29363 H6       -1100.4875  -788.7361   975.4339 H6            1 RES     
   29364 H6       -1099.2495  -789.8874   976.0540 H6            1 RES     
   29365 H6       -1099.5441  -791.3881   974.1201 H6            1 RES     
   29366 H6       -1100.8389  -790.3026   973.4590 H6            1 RES     
   29367 H6       -1101.0696  -791.1459   975.0421 H6            1 RES     
   29368 H6       -1094.1592  -785.9211   969.8525 H6            1 RES     
   29369 H6       -1095.7785  -785.6206   969.1610 H6            1 RES     
   29370 H6       -1095.2441  -786.6602   967.3928 H6            1 RES     
   29371 H6       -1093.8789  -787.7040   967.2608 H6            1 RES     
   29372 H6       -1096.8414  -788.6450   967.3968 H6            1 RES     
   29373 H6       -1095.1069  -790.4247   967.4639 H6            1 RES     
   29374 H6       -1096.3209  -790.6001   966.1638 H6            1 RES     
   29375 H6       -1094.7644  -789.8883   964.4109 H6            1 RES     
   29376 H6       -1093.5480  -789.4128   965.6107 H6            1 RES     
   29377 H6       -1092.8099  -791.4905   964.7268 H6            1 RES     
   29378 H6       -1093.3746  -791.8250   966.3749 H6            1 RES     
   29379 H6       -1095.5267  -792.7475   965.4788 H6            1 RES     
   29380 H6       -1094.0653  -793.6156   964.9121 H6            1 RES     
   29381 H6       -1095.7031  -791.5887   963.2464 H6            1 RES     
   29382 H6       -1095.6914  -793.3747   963.0975 H6            1 RES     
   29383 H6       -1093.2516  -793.3227   962.4861 H6            1 RES     
   29384 H6       -1094.2822  -792.3781   961.3450 H6            1 RES     
   29385 H6       -1093.2854  -791.5128   962.5523 H6            1 RES     
   29386 H6       -1097.1181  -787.0005   965.7824 H6            1 RES     
   29387 H6       -1096.9947  -788.5261   964.8616 H6            1 RES     
   29388 H6       -1094.4974  -787.7689   964.3772 H6            1 RES     
   29389 H6       -1094.9024  -786.2395   965.1692 H6            1 RES     
   29390 H6       -1094.9537  -786.1660   962.7237 H6            1 RES     
   29391 H6       -1096.1930  -787.4640   962.6371 H6            1 RES     
   29392 H6       -1096.6251  -784.6665   963.9085 H6            1 RES     
   29393 H6       -1097.8446  -785.9862   963.7705 H6            1 RES     
   29394 H6       -1097.6947  -785.8846   961.2644 H6            1 RES     
   29395 H6       -1098.2555  -784.3593   962.0371 H6            1 RES     
   29396 H6       -1095.3867  -784.8697   961.0167 H6            1 RES     
   29397 H6       -1095.9715  -783.3537   961.7905 H6            1 RES     
   29398 H6       -1095.7978  -783.2232   959.3124 H6            1 RES     
   29399 H6       -1096.9562  -784.5860   959.1227 H6            1 RES     
   29400 H6       -1098.7621  -783.1677   960.1628 H6            1 RES     
   29401 H6       -1098.0189  -782.3623   958.7424 H6            1 RES     
   29402 H6       -1097.5593  -781.8320   960.4028 H6            1 RES     
   29403 C0       -1097.4476  -785.0021   981.8226 C0            1 RES     
   29404 C0       -1096.7266  -785.2272   983.2127 C0            1 RES     
   29405 C0       -1095.4133  -785.5067   983.0373 C0            1 RES     
   29406 S1       -1094.5610  -785.7217   984.4670 S1            1 RES     
   29407 C0       -1095.9244  -785.4385   985.4408 C0            1 RES     
   29408 C0       -1097.0329  -785.2662   984.5994 C0            1 RES     
   29409 C0       -1095.1322  -785.6188   981.6543 C0            1 RES     
   29410 C0       -1096.2276  -785.3727   980.9722 C0            1 RES     
   29411 C0       -1096.0450  -785.6773   979.5807 C0            1 RES     
   29412 C0       -1094.7749  -786.1625   979.3275 C0            1 RES     
   29413 S1       -1093.6970  -786.2016   980.7702 S1            1 RES     
   29414 H2       -1098.0000  -785.1319   985.0101 H2            1 RES     
   29415 H2       -1096.8212  -785.6687   978.8752 H2            1 RES     
   29416 N3       -1097.1001  -784.5578   988.9457 N3            1 RES     
   29417 C0       -1097.0870  -784.7832   987.6019 C0            1 RES     
   29418 C0       -1095.9370  -785.2890   986.9392 C0            1 RES     
   29419 C0       -1094.8156  -785.5573   987.7534 C0            1 RES     
   29420 N3       -1093.6326  -786.0489   987.3017 N3            1 RES     
   29421 S1       -1092.7337  -786.1486   988.6830 S1            1 RES     
   29422 N3       -1093.7466  -785.5930   989.8589 N3            1 RES     
   29423 C0       -1094.8748  -785.3084   989.1561 C0            1 RES     
   29424 C0       -1096.0260  -784.8038   989.7352 C0            1 RES     
   29425 H4       -1097.9744  -784.5301   987.0598 H4            1 RES     
   29426 C5       -1092.4093  -779.7123   989.9776 C5            1 RES     
   29427 C5       -1092.4497  -781.0737   989.2837 C5            1 RES     
   29428 C5       -1093.8296  -781.4102   988.6932 C5            1 RES     
   29429 C5       -1094.2430  -780.4811   987.5370 C5            1 RES     
   29430 C5       -1095.6073  -780.8937   986.9636 C5            1 RES     
   29431 C5       -1095.9645  -780.0655   985.7097 C5            1 RES     
   29432 C5       -1097.3044  -780.4534   985.0295 C5            1 RES     
   29433 C5       -1097.3688  -781.9610   984.7792 C5            1 RES     
   29434 C5       -1098.4140  -782.4832   983.7615 C5            1 RES     
   29435 C5       -1099.9461  -782.4362   984.1343 C5            1 RES     
   29436 C5       -1100.1731  -783.5378   985.2065 C5            1 RES     
   29437 C5       -1101.4920  -783.9561   985.8672 C5            1 RES     
   29438 C5       -1101.0986  -785.1296   986.8240 C5            1 RES     
   29439 C5       -1102.2044  -785.7861   987.6486 C5            1 RES     
   29440 C5       -1103.1612  -786.6224   986.8080 C5            1 RES     
   29441 C5       -1097.9551  -782.2988   982.3078 C5            1 RES     
   29442 C0       -1098.1955  -783.5871   981.4187 C0            1 RES     
   29443 C5       -1098.3027  -783.1441   979.8959 C5            1 RES     
   29444 C5       -1099.5771  -783.5785   979.0908 C5            1 RES     
   29445 C5       -1099.4732  -784.9858   978.4351 C5            1 RES     
   29446 C5       -1098.6111  -785.0527   977.1521 C5            1 RES     
   29447 C5       -1098.3006  -786.4920   976.6964 C5            1 RES     
   29448 C5       -1099.4964  -787.2778   976.1360 C5            1 RES     
   29449 C5       -1100.1045  -786.6920   974.8469 C5            1 RES     
   29450 C5       -1099.1001  -786.5986   973.6939 C5            1 RES     
   29451 C5       -1100.0868  -782.4763   978.0831 C5            1 RES     
   29452 C5       -1099.0210  -781.7845   977.1889 C5            1 RES     
   29453 C5       -1099.6037  -780.8927   976.0694 C5            1 RES     
   29454 C5       -1100.4443  -779.6952   976.5553 C5            1 RES     
   29455 C5       -1100.9517  -778.8029   975.3958 C5            1 RES     
   29456 C5       -1099.8232  -778.0575   974.6497 C5            1 RES     
   29457 C5       -1100.3169  -777.1763   973.4863 C5            1 RES     
   29458 C5       -1101.2053  -776.0120   973.9244 C5            1 RES     
   29459 H6       -1092.5947  -778.8886   989.2593 H6            1 RES     
   29460 H6       -1091.4052  -779.5557   990.4252 H6            1 RES     
   29461 H6       -1093.1679  -779.6741   990.7881 H6            1 RES     
   29462 H6       -1091.6745  -781.1110   988.4873 H6            1 RES     
   29463 H6       -1092.2005  -781.8481   990.0417 H6            1 RES     
   29464 H6       -1093.7786  -782.4511   988.3021 H6            1 RES     
   29465 H6       -1094.5935  -781.3823   989.4999 H6            1 RES     
   29466 H6       -1093.4705  -780.5559   986.7390 H6            1 RES     
   29467 H6       -1094.3060  -779.4274   987.8775 H6            1 RES     
   29468 H6       -1095.5296  -781.9662   986.6850 H6            1 RES     
   29469 H6       -1096.3959  -780.7779   987.7376 H6            1 RES     
   29470 H6       -1095.9894  -778.9832   985.9598 H6            1 RES     
   29471 H6       -1095.1505  -780.2238   984.9668 H6            1 RES     
   29472 H6       -1098.1762  -780.1535   985.6497 H6            1 RES     
   29473 H6       -1097.3491  -779.9011   984.0660 H6            1 RES     
   29474 H6       -1097.5045  -782.4632   985.7552 H6            1 RES     
   29475 H6       -1096.3729  -782.2894   984.4034 H6            1 RES     
   29476 H6       -1098.2439  -783.4976   983.7946 H6            1 RES     
   29477 H6       -1100.2430  -781.4218   984.4740 H6            1 RES     
   29478 H6       -1100.5592  -782.7130   983.2483 H6            1 RES     
   29479 H6       -1099.8986  -784.4717   984.6808 H6            1 RES     
   29480 H6       -1099.4906  -783.2911   986.0372 H6            1 RES     
   29481 H6       -1102.2183  -784.2966   985.0978 H6            1 RES     
   29482 H6       -1101.9256  -783.1152   986.4471 H6            1 RES     
   29483 H6       -1100.5866  -785.9382   986.2504 H6            1 RES     
   29484 H6       -1100.3633  -784.7328   987.5580 H6            1 RES     
   29485 H6       -1102.7495  -785.0211   988.2378 H6            1 RES     
   29486 H6       -1101.7085  -786.4853   988.3612 H6            1 RES     
   29487 H6       -1102.5992  -787.4081   986.2556 H6            1 RES     
   29488 H6       -1103.7152  -785.9872   986.0903 H6            1 RES     
   29489 H6       -1103.8845  -787.1285   987.4827 H6            1 RES     
   29490 H6       -1096.8613  -782.1138   982.2378 H6            1 RES     
   29491 H6       -1098.4629  -781.3788   981.9457 H6            1 RES     
   29492 H6       -1098.4301  -782.0456   979.9340 H6            1 RES     
   29493 H6       -1097.3543  -783.2506   979.3329 H6            1 RES     
   29494 H6       -1100.3962  -783.6633   979.8404 H6            1 RES     
   29495 H6       -1099.0916  -785.6834   979.2097 H6            1 RES     
   29496 H6       -1100.4934  -785.3295   978.1587 H6            1 RES     
   29497 H6       -1099.0972  -784.5056   976.3220 H6            1 RES     
   29498 H6       -1097.6437  -784.5493   977.3373 H6            1 RES     
   29499 H6       -1097.5055  -786.4538   975.9242 H6            1 RES     
   29500 H6       -1097.8789  -787.0660   977.5468 H6            1 RES     
   29501 H6       -1100.2866  -787.3577   976.9116 H6            1 RES     
   29502 H6       -1099.1446  -788.3084   975.9105 H6            1 RES     
   29503 H6       -1100.5391  -785.6893   975.0381 H6            1 RES     
   29504 H6       -1100.9314  -787.3624   974.5294 H6            1 RES     
   29505 H6       -1098.6546  -787.5947   973.4848 H6            1 RES     
   29506 H6       -1099.6164  -786.2407   972.7793 H6            1 RES     
   29507 H6       -1098.2906  -785.8753   973.9232 H6            1 RES     
   29508 H6       -1100.5504  -781.6601   978.6782 H6            1 RES     
   29509 H6       -1100.8932  -782.9206   977.4599 H6            1 RES     
   29510 H6       -1098.3914  -782.5194   976.6698 H6            1 RES     
   29511 H6       -1098.3387  -781.1754   977.8192 H6            1 RES     
   29512 H6       -1098.7337  -780.5151   975.4962 H6            1 RES     
   29513 H6       -1100.2207  -781.5178   975.3866 H6            1 RES     
   29514 H6       -1099.8523  -779.0713   977.2595 H6            1 RES     
   29515 H6       -1101.3323  -780.0859   977.0925 H6            1 RES     
   29516 H6       -1101.5361  -779.4197   974.6783 H6            1 RES     
   29517 H6       -1101.6375  -778.0476   975.8382 H6            1 RES     
   29518 H6       -1099.1270  -778.7953   974.2042 H6            1 RES     
   29519 H6       -1099.2535  -777.4282   975.3679 H6            1 RES     
   29520 H6       -1099.4238  -776.7452   972.9820 H6            1 RES     
   29521 H6       -1100.8617  -777.7994   972.7447 H6            1 RES     
   29522 H6       -1102.1489  -776.3752   974.3785 H6            1 RES     
   29523 H6       -1101.4689  -775.3984   973.0361 H6            1 RES     
   29524 H6       -1100.6665  -775.3666   974.6500 H6            1 RES     
   29525 C0       -1098.0724  -783.5033   994.5480 C0            1 RES     
   29526 C0       -1097.2189  -784.1749   995.6985 C0            1 RES     
   29527 C0       -1096.0363  -784.6303   995.2212 C0            1 RES     
   29528 S1       -1095.0480  -785.3246   996.3865 S1            1 RES     
   29529 C0       -1096.1603  -785.0466   997.6407 C0            1 RES     
   29530 C0       -1097.3182  -784.4880   997.0807 C0            1 RES     
   29531 C0       -1095.9931  -784.4581   993.8166 C0            1 RES     
   29532 C0       -1097.0990  -783.8691   993.4220 C0            1 RES     
   29533 C0       -1097.1934  -783.8615   991.9891 C0            1 RES     
   29534 C0       -1096.1079  -784.4874   991.4035 C0            1 RES     
   29535 S1       -1094.8623  -785.0562   992.5738 S1            1 RES     
   29536 H2       -1098.1627  -784.2879   997.6879 H2            1 RES     
   29537 H2       -1098.0453  -783.5499   991.4624 H2            1 RES     
   29538 N3       -1096.5898  -784.8318  1001.4105 N3            1 RES     
   29539 C0       -1096.8237  -784.7302  1000.0720 C0            1 RES     
   29540 C0       -1095.9193  -785.2574   999.1121 C0            1 RES     
   29541 C0       -1094.7734  -785.9036   999.6241 C0            1 RES     
   29542 N3       -1093.8027  -786.4732   998.8633 N3            1 RES     
   29543 S1       -1092.7520  -787.0540   999.9967 S1            1 RES     
   29544 N3       -1093.4377  -786.6250  1001.4331 N3            1 RES     
   29545 C0       -1094.5702  -785.9886  1001.0328 C0            1 RES     
   29546 C0       -1095.4885  -785.4425  1001.9124 C0            1 RES     
   29547 H4       -1097.7067  -784.2043   999.7733 H4            1 RES     
   29548 C5       -1090.8721  -781.2686  1002.4874 C5            1 RES     
   29549 C5       -1091.3045  -782.3975  1001.5518 C5            1 RES     
   29550 C5       -1092.7962  -782.3371  1001.1812 C5            1 RES     
   29551 C5       -1093.1676  -781.1024  1000.3395 C5            1 RES     
   29552 C5       -1094.6580  -781.1214   999.9669 C5            1 RES     
   29553 C5       -1095.0111  -779.9698   999.0001 C5            1 RES     
   29554 C5       -1096.4884  -779.9441   998.5252 C5            1 RES     
   29555 C5       -1096.9097  -781.3139   997.9904 C5            1 RES     
   29556 C5       -1098.1809  -781.3881   997.1077 C5            1 RES     
   29557 C5       -1099.5953  -781.1634   997.7691 C5            1 RES     
   29558 C5       -1099.8916  -782.4309   998.6178 C5            1 RES     
   29559 C5       -1101.1570  -782.7566   999.4201 C5            1 RES     
   29560 C5       -1100.8866  -784.1739  1000.0244 C5            1 RES     
   29561 C5       -1101.9729  -784.8035  1000.8947 C5            1 RES     
   29562 C5       -1103.1998  -785.2353  1000.1011 C5            1 RES     
   29563 C5       -1097.9131  -780.9468   995.6615 C5            1 RES     
   29564 C0       -1098.5519  -781.9245   994.5918 C0            1 RES     
   29565 C5       -1098.7857  -781.1207   993.2405 C5            1 RES     
   29566 C5       -1100.2280  -781.1214   992.6237 C5            1 RES     
   29567 C5       -1100.5253  -782.3284   991.6878 C5            1 RES     
   29568 C5       -1099.8966  -782.2385   990.2769 C5            1 RES     
   29569 C5       -1099.9716  -783.5598   989.4869 C5            1 RES     
   29570 C5       -1101.3770  -783.9681   989.0184 C5            1 RES     
   29571 C5       -1102.0295  -782.9957   988.0167 C5            1 RES     
   29572 C5       -1101.2099  -782.8085   986.7360 C5            1 RES     
   29573 C5       -1100.6335  -779.7396   991.9783 C5            1 RES     
   29574 C5       -1099.5886  -779.0528   991.0561 C5            1 RES     
   29575 C5       -1100.1260  -777.8328   990.2746 C5            1 RES     
   29576 C5       -1100.6101  -776.6569   991.1461 C5            1 RES     
   29577 C5       -1101.0806  -775.4400   990.3120 C5            1 RES     
   29578 C5       -1099.9418  -774.7481   989.5308 C5            1 RES     
   29579 C5       -1100.4021  -773.5434   988.6879 C5            1 RES     
   29580 C5       -1100.9465  -772.3794   989.5159 C5            1 RES     
   29581 H6       -1090.9812  -780.2785  1002.0009 H6            1 RES     
   29582 H6       -1089.8029  -781.4012  1002.7563 H6            1 RES     
   29583 H6       -1091.4768  -781.2918  1003.4188 H6            1 RES     
   29584 H6       -1090.6815  -782.3797  1000.6309 H6            1 RES     
   29585 H6       -1091.1174  -783.3611  1002.0742 H6            1 RES     
   29586 H6       -1093.0271  -783.2477  1000.5841 H6            1 RES     
   29587 H6       -1093.4087  -782.3683  1002.1080 H6            1 RES     
   29588 H6       -1092.5555  -781.1195   999.4100 H6            1 RES     
   29589 H6       -1092.9530  -780.1654  1000.8930 H6            1 RES     
   29590 H6       -1094.8533  -782.0936   999.4662 H6            1 RES     
   29591 H6       -1095.2804  -781.0566  1000.8848 H6            1 RES     
   29592 H6       -1094.7669  -778.9907   999.4653 H6            1 RES     
   29593 H6       -1094.3686  -780.0870   998.0985 H6            1 RES     
   29594 H6       -1097.1745  -779.6523   999.3490 H6            1 RES     
   29595 H6       -1096.5559  -779.1798   997.7212 H6            1 RES     
   29596 H6       -1097.0039  -782.0018   998.8513 H6            1 RES     
   29597 H6       -1096.0737  -781.7127   997.3717 H6            1 RES     
   29598 H6       -1098.2286  -782.3949   996.9004 H6            1 RES     
   29599 H6       -1099.6150  -780.2228   998.3587 H6            1 RES     
   29600 H6       -1100.3773  -781.1101   996.9798 H6            1 RES     
   29601 H6       -1099.9037  -783.2464   997.8705 H6            1 RES     
   29602 H6       -1099.0571  -782.5120   999.3346 H6            1 RES     
   29603 H6       -1102.0448  -782.7720   998.7515 H6            1 RES     
   29604 H6       -1101.3103  -782.0150  1000.2313 H6            1 RES     
   29605 H6       -1100.6497  -784.8999   999.2109 H6            1 RES     
   29606 H6       -1099.9833  -784.0979  1000.6688 H6            1 RES     
   29607 H6       -1102.2488  -784.1170  1001.7206 H6            1 RES     
   29608 H6       -1101.5382  -785.7276  1001.3413 H6            1 RES     
   29609 H6       -1102.9066  -785.9532   999.3029 H6            1 RES     
   29610 H6       -1103.7050  -784.3608   999.6475 H6            1 RES     
   29611 H6       -1103.9067  -785.7525  1000.7846 H6            1 RES     
   29612 H6       -1096.8276  -780.9450   995.4220 H6            1 RES     
   29613 H6       -1098.2603  -779.8929   995.5986 H6            1 RES     
   29614 H6       -1098.6683  -780.0579   993.5251 H6            1 RES     
   29615 H6       -1097.9758  -781.2548   992.4963 H6            1 RES     
   29616 H6       -1100.9264  -781.2370   993.4832 H6            1 RES     
   29617 H6       -1100.1915  -783.2458   992.2162 H6            1 RES     
   29618 H6       -1101.6247  -782.4125   991.5483 H6            1 RES     
   29619 H6       -1100.3717  -781.4335   989.6846 H6            1 RES     
   29620 H6       -1098.8274  -781.9710   990.3716 H6            1 RES     
   29621 H6       -1099.3097  -783.4791   988.6008 H6            1 RES     
   29622 H6       -1099.5614  -784.3841   990.1056 H6            1 RES     
   29623 H6       -1102.0426  -784.0903   989.8984 H6            1 RES     
   29624 H6       -1101.2908  -784.9608   988.5246 H6            1 RES     
   29625 H6       -1102.2067  -782.0069   988.4877 H6            1 RES     
   29626 H6       -1103.0182  -783.4160   987.7341 H6            1 RES     
   29627 H6       -1101.0234  -783.7886   986.2470 H6            1 RES     
   29628 H6       -1101.7671  -782.1587   986.0298 H6            1 RES     
   29629 H6       -1100.2398  -782.3135   986.9480 H6            1 RES     
   29630 H6       -1100.8188  -779.0199   992.8048 H6            1 RES     
   29631 H6       -1101.5992  -779.8749   991.4444 H6            1 RES     
   29632 H6       -1099.2143  -779.7419   990.2874 H6            1 RES     
   29633 H6       -1098.7064  -778.7400   991.6544 H6            1 RES     
   29634 H6       -1099.2899  -777.4882   989.6342 H6            1 RES     
   29635 H6       -1100.9563  -778.1598   989.6103 H6            1 RES     
   29636 H6       -1099.8011  -776.3316   991.8357 H6            1 RES     
   29637 H6       -1101.4718  -777.0022   991.7528 H6            1 RES     
   29638 H6       -1101.8827  -775.7565   989.6097 H6            1 RES     
   29639 H6       -1101.5162  -774.7033   991.0220 H6            1 RES     
   29640 H6       -1099.4929  -775.4692   988.8193 H6            1 RES     
   29641 H6       -1099.1511  -774.4173   990.2390 H6            1 RES     
   29642 H6       -1099.5220  -773.1681   988.1201 H6            1 RES     
   29643 H6       -1101.1709  -773.8672   987.9537 H6            1 RES     
   29644 H6       -1101.8682  -772.6691   990.0591 H6            1 RES     
   29645 H6       -1101.2011  -771.5360   988.8386 H6            1 RES     
   29646 H6       -1100.1810  -772.0295   990.2406 H6            1 RES     
   29647 C0       -1096.4759  -784.9849  1007.1904 C0            1 RES     
   29648 C0       -1095.6253  -786.0493  1007.9944 C0            1 RES     
   29649 C0       -1094.6511  -786.5781  1007.2166 C0            1 RES     
   29650 S1       -1093.6730  -787.6913  1008.0045 S1            1 RES     
   29651 C0       -1094.5024  -787.5289  1009.4786 C0            1 RES     
   29652 C0       -1095.5839  -786.6594  1009.2769 C0            1 RES     
   29653 C0       -1094.7800  -786.0875  1005.8949 C0            1 RES     
   29654 C0       -1095.7804  -785.2373  1005.8481 C0            1 RES     
   29655 C0       -1096.0815  -784.8732  1004.4921 C0            1 RES     
   29656 C0       -1095.2536  -785.5221  1003.5942 C0            1 RES     
   29657 S1       -1093.9994  -786.5617  1004.3630 S1            1 RES     
   29658 H2       -1096.2670  -786.4646  1010.0626 H2            1 RES     
   29659 H2       -1096.9154  -784.3011  1004.2133 H2            1 RES     
   29660 N3       -1094.3145  -788.1440  1013.2241 N3            1 RES     
   29661 C0       -1094.7164  -787.6880  1012.0045 C0            1 RES     
   29662 C0       -1094.0974  -788.1221  1010.8021 C0            1 RES     
   29663 C0       -1093.0533  -789.0618  1010.9422 C0            1 RES     
   29664 N3       -1092.3501  -789.5952  1009.9096 N3            1 RES     
   29665 S1       -1091.2921  -790.6034  1010.6780 S1            1 RES     
   29666 N3       -1091.6505  -790.4147  1012.2760 N3            1 RES     
   29667 C0       -1092.6672  -789.5132  1012.2384 C0            1 RES     
   29668 C0       -1093.3074  -789.0395  1013.3703 C0            1 RES     
   29669 H4       -1095.5008  -786.9599  1011.9943 H4            1 RES     
   29670 C5       -1087.8725  -785.9965  1013.8860 C5            1 RES     
   29671 C5       -1088.6696  -786.7771  1012.8410 C5            1 RES     
   29672 C5       -1090.1518  -786.3702  1012.7837 C5            1 RES     
   29673 C5       -1090.3710  -784.9255  1012.2982 C5            1 RES     
   29674 C5       -1091.8693  -784.5942  1012.2226 C5            1 RES     
   29675 C5       -1092.1070  -783.2023  1011.5966 C5            1 RES     
   29676 C5       -1093.5982  -782.8063  1011.4293 C5            1 RES     
   29677 C5       -1094.3767  -783.9143  1010.7179 C5            1 RES     
   29678 C5       -1095.7506  -783.5529  1010.0992 C5            1 RES     
   29679 C5       -1096.9707  -783.2477  1011.0514 C5            1 RES     
   29680 C5       -1097.4023  -784.6085  1011.6651 C5            1 RES     
   29681 C5       -1098.5754  -784.8886  1012.6119 C5            1 RES     
   29682 C5       -1098.5279  -786.4337  1012.8517 C5            1 RES     
   29683 C5       -1099.5829  -787.0518  1013.7675 C5            1 RES     
   29684 C5       -1100.9771  -787.0610  1013.1531 C5            1 RES     
   29685 C5       -1095.6112  -782.8346  1008.7492 C5            1 RES     
   29686 C0       -1096.5951  -783.4028  1007.6458 C0            1 RES     
   29687 C5       -1096.8486  -782.2729  1006.5569 C5            1 RES     
   29688 C5       -1098.3327  -781.8744  1006.2413 C5            1 RES     
   29689 C5       -1099.0159  -782.7534  1005.1541 C5            1 RES     
   29690 C5       -1098.5980  -782.4423  1003.6973 C5            1 RES     
   29691 C5       -1099.0695  -783.5040  1002.6843 C5            1 RES     
   29692 C5       -1100.5831  -783.5368  1002.4210 C5            1 RES     
   29693 C5       -1101.1533  -782.2554  1001.7825 C5            1 RES     
   29694 C5       -1100.5110  -781.9158  1000.4337 C5            1 RES     
   29695 C5       -1098.5243  -780.3299  1005.9808 C5            1 RES     
   29696 C5       -1097.5047  -779.6376  1005.0346 C5            1 RES     
   29697 C5       -1097.8783  -778.1922  1004.6358 C5            1 RES     
   29698 C5       -1097.9659  -777.1909  1005.8048 C5            1 RES     
   29699 C5       -1098.2834  -775.7477  1005.3418 C5            1 RES     
   29700 C5       -1097.1512  -775.1004  1004.5141 C5            1 RES     
   29701 C5       -1097.4627  -773.6685  1004.0384 C5            1 RES     
   29702 C5       -1097.6174  -772.6578  1005.1748 C5            1 RES     
   29703 H6       -1087.8382  -784.9159  1013.6414 H6            1 RES     
   29704 H6       -1086.8287  -786.3743  1013.9121 H6            1 RES     
   29705 H6       -1088.3239  -786.1341  1014.8916 H6            1 RES     
   29706 H6       -1088.2002  -786.6505  1011.8409 H6            1 RES     
   29707 H6       -1088.6177  -787.8547  1013.1105 H6            1 RES     
   29708 H6       -1090.6577  -787.0580  1012.0694 H6            1 RES     
   29709 H6       -1090.6131  -786.5129  1013.7847 H6            1 RES     
   29710 H6       -1089.9208  -784.8282  1011.2848 H6            1 RES     
   29711 H6       -1089.8818  -784.1993  1012.9791 H6            1 RES     
   29712 H6       -1092.3396  -785.3700  1011.5815 H6            1 RES     
   29713 H6       -1092.3209  -784.6413  1013.2365 H6            1 RES     
   29714 H6       -1091.5932  -782.4202  1012.1956 H6            1 RES     
   29715 H6       -1091.6448  -783.2127  1010.5838 H6            1 RES     
   29716 H6       -1094.0767  -782.6031  1012.4113 H6            1 RES     
   29717 H6       -1093.6188  -781.8732  1010.8259 H6            1 RES     
   29718 H6       -1094.4876  -784.7596  1011.4225 H6            1 RES     
   29719 H6       -1093.7460  -784.2948  1009.8823 H6            1 RES     
   29720 H6       -1096.0424  -784.4572  1009.7044 H6            1 RES     
   29721 H6       -1096.7017  -782.4856  1011.8126 H6            1 RES     
   29722 H6       -1097.8311  -782.8723  1010.4545 H6            1 RES     
   29723 H6       -1097.6987  -785.2080  1010.7839 H6            1 RES     
   29724 H6       -1096.5080  -785.0023  1012.1767 H6            1 RES     
   29725 H6       -1099.5347  -784.5890  1012.1372 H6            1 RES     
   29726 H6       -1098.4452  -784.3459  1013.5710 H6            1 RES     
   29727 H6       -1098.5744  -786.9757  1011.8774 H6            1 RES     
   29728 H6       -1097.5442  -786.6724  1013.3124 H6            1 RES     
   29729 H6       -1099.5806  -786.5438  1014.7532 H6            1 RES     
   29730 H6       -1099.2946  -788.1170  1013.9248 H6            1 RES     
   29731 H6       -1100.9653  -787.6086  1012.1845 H6            1 RES     
   29732 H6       -1101.3451  -786.0293  1012.9926 H6            1 RES     
   29733 H6       -1101.6693  -787.5938  1013.8397 H6            1 RES     
   29734 H6       -1094.5980  -782.9661  1008.3113 H6            1 RES     
   29735 H6       -1095.7306  -781.7519  1008.9699 H6            1 RES     
   29736 H6       -1096.4661  -781.3455  1007.0239 H6            1 RES     
   29737 H6       -1096.2051  -782.3660  1005.6597 H6            1 RES     
   29738 H6       -1098.9048  -782.0668  1007.1770 H6            1 RES     
   29739 H6       -1098.8116  -783.8138  1005.4107 H6            1 RES     
   29740 H6       -1100.1162  -782.6080  1005.2141 H6            1 RES     
   29741 H6       -1098.9722  -781.4493  1003.3836 H6            1 RES     
   29742 H6       -1097.4944  -782.3964  1003.6375 H6            1 RES     
   29743 H6       -1098.5440  -783.3323  1001.7229 H6            1 RES     
   29744 H6       -1098.7582  -784.5104  1003.0318 H6            1 RES     
   29745 H6       -1101.1220  -783.7460  1003.3688 H6            1 RES     
   29746 H6       -1100.7849  -784.3830  1001.7284 H6            1 RES     
   29747 H6       -1101.0435  -781.3916  1002.4699 H6            1 RES     
   29748 H6       -1102.2397  -782.4168  1001.6153 H6            1 RES     
   29749 H6       -1100.6126  -782.7687   999.7290 H6            1 RES     
   29750 H6       -1101.0146  -781.0297   999.9949 H6            1 RES     
   29751 H6       -1099.4371  -781.6631  1000.5519 H6            1 RES     
   29752 H6       -1098.4274  -779.8061  1006.9563 H6            1 RES     
   29753 H6       -1099.5646  -780.1632  1005.6259 H6            1 RES     
   29754 H6       -1097.4041  -780.1789  1004.0846 H6            1 RES     
   29755 H6       -1096.4976  -779.6353  1005.5034 H6            1 RES     
   29756 H6       -1097.0919  -777.8572  1003.9306 H6            1 RES     
   29757 H6       -1098.8481  -778.2014  1004.0908 H6            1 RES     
   29758 H6       -1097.0133  -777.1856  1006.3777 H6            1 RES     
   29759 H6       -1098.7821  -777.5140  1006.4822 H6            1 RES     
   29760 H6       -1099.2293  -775.7428  1004.7571 H6            1 RES     
   29761 H6       -1098.4417  -775.1362  1006.2570 H6            1 RES     
   29762 H6       -1096.9769  -775.6989  1003.5981 H6            1 RES     
   29763 H6       -1096.2123  -775.0910  1005.1097 H6            1 RES     
   29764 H6       -1096.6165  -773.3292  1003.4008 H6            1 RES     
   29765 H6       -1098.3827  -773.6689  1003.4151 H6            1 RES     
   29766 H6       -1098.4891  -772.9022  1005.8142 H6            1 RES     
   29767 H6       -1097.7830  -771.6465  1004.7450 H6            1 RES     
   29768 H6       -1096.6964  -772.6296  1005.7948 H6            1 RES     
   29769 C0       -1093.3835  -789.6832  1018.7202 C0            1 RES     
   29770 C0       -1092.6708  -791.0402  1019.1123 C0            1 RES     
   29771 C0       -1091.9580  -791.5312  1018.0710 C0            1 RES     
   29772 S1       -1091.1349  -792.9533  1018.4131 S1            1 RES     
   29773 C0       -1091.6834  -793.0031  1020.0206 C0            1 RES     
   29774 C0       -1092.5718  -791.9350  1020.2114 C0            1 RES     
   29775 C0       -1092.1728  -790.7259  1016.9266 C0            1 RES     
   29776 C0       -1092.9641  -789.7273  1017.2467 C0            1 RES     
   29777 C0       -1093.3774  -789.0046  1016.0767 C0            1 RES     
   29778 C0       -1092.8491  -789.5563  1014.9237 C0            1 RES     
   29779 S1       -1091.7466  -790.9518  1015.2095 S1            1 RES     
   29780 H2       -1093.0737  -791.8159  1021.1365 H2            1 RES     
   29781 H2       -1094.1015  -788.2457  1016.0855 H2            1 RES     
   29782 N3       -1091.0802  -794.5135  1023.4553 N3            1 RES     
   29783 C0       -1091.5510  -793.7176  1022.4544 C0            1 RES     
   29784 C0       -1091.2236  -793.9552  1021.0928 C0            1 RES     
   29785 C0       -1090.3955  -795.0691  1020.8357 C0            1 RES     
   29786 N3       -1089.9829  -795.4566  1019.6009 N3            1 RES     
   29787 S1       -1089.0633  -796.7876  1019.9303 S1            1 RES     
   29788 N3       -1089.1330  -796.9242  1021.5717 N3            1 RES     
   29789 C0       -1089.9277  -795.8759  1021.9142 C0            1 RES     
   29790 C0       -1090.2775  -795.5801  1023.2201 C0            1 RES     
   29791 H4       -1092.1544  -792.8822  1022.7432 H4            1 RES     
   29792 C5       -1084.3028  -793.7469  1023.2918 C5            1 RES     
   29793 C5       -1085.3936  -794.1049  1022.2825 C5            1 RES     
   29794 C5       -1086.7465  -793.4429  1022.5947 C5            1 RES     
   29795 C5       -1086.7211  -791.9089  1022.4648 C5            1 RES     
   29796 C5       -1088.1083  -791.3120  1022.7471 C5            1 RES     
   29797 C5       -1088.1329  -789.7918  1022.4749 C5            1 RES     
   29798 C5       -1089.5129  -789.1126  1022.6811 C5            1 RES     
   29799 C5       -1090.6066  -789.8659  1021.9220 C5            1 RES     
   29800 C5       -1091.9474  -789.1330  1021.6652 C5            1 RES     
   29801 C5       -1092.9198  -788.8539  1022.8756 C5            1 RES     
   29802 C5       -1093.5368  -790.2243  1023.2707 C5            1 RES     
   29803 C5       -1094.5896  -790.5115  1024.3478 C5            1 RES     
   29804 C5       -1094.8385  -792.0531  1024.2544 C5            1 RES     
   29805 C5       -1095.8541  -792.6764  1025.2103 C5            1 RES     
   29806 C5       -1097.2932  -792.2952  1024.8861 C5            1 RES     
   29807 C5       -1091.8588  -788.1504  1020.4885 C5            1 RES     
   29808 C0       -1093.0932  -788.2589  1019.5023 C0            1 RES     
   29809 C5       -1093.2574  -786.8763  1018.7355 C5            1 RES     
   29810 C5       -1094.6520  -786.1607  1018.7984 C5            1 RES     
   29811 C5       -1095.6602  -786.6226  1017.7068 C5            1 RES     
   29812 C5       -1095.4053  -786.0525  1016.2913 C5            1 RES     
   29813 C5       -1096.2371  -786.7437  1015.1930 C5            1 RES     
   29814 C5       -1097.7447  -786.4474  1015.2241 C5            1 RES     
   29815 C5       -1098.1158  -784.9716  1014.9812 C5            1 RES     
   29816 C5       -1097.6222  -784.4392  1013.6322 C5            1 RES     
   29817 C5       -1094.5455  -784.5895  1018.8994 C5            1 RES     
   29818 C5       -1093.5527  -783.8818  1017.9363 C5            1 RES     
   29819 C5       -1093.6635  -782.3406  1017.9192 C5            1 RES     
   29820 C5       -1093.3614  -781.6463  1019.2621 C5            1 RES     
   29821 C5       -1093.4280  -780.1018  1019.1723 C5            1 RES     
   29822 C5       -1092.3186  -779.4850  1018.2921 C5            1 RES     
   29823 C5       -1092.3837  -777.9493  1018.1867 C5            1 RES     
   29824 C5       -1092.1492  -777.2264  1019.5131 C5            1 RES     
   29825 H6       -1084.0748  -792.6623  1023.2703 H6            1 RES     
   29826 H6       -1083.3716  -794.2968  1023.0396 H6            1 RES     
   29827 H6       -1084.6195  -794.0381  1024.3158 H6            1 RES     
   29828 H6       -1085.0610  -793.8285  1021.2580 H6            1 RES     
   29829 H6       -1085.5339  -795.2076  1022.3119 H6            1 RES     
   29830 H6       -1087.4874  -793.8418  1021.8660 H6            1 RES     
   29831 H6       -1087.0746  -793.7363  1023.6153 H6            1 RES     
   29832 H6       -1086.4152  -791.6540  1021.4252 H6            1 RES     
   29833 H6       -1085.9929  -791.4625  1023.1724 H6            1 RES     
   29834 H6       -1088.8229  -791.8186  1022.0639 H6            1 RES     
   29835 H6       -1088.4048  -791.5188  1023.7976 H6            1 RES     
   29836 H6       -1087.3811  -789.2767  1023.1107 H6            1 RES     
   29837 H6       -1087.8383  -789.6420  1021.4118 H6            1 RES     
   29838 H6       -1089.7866  -789.0678  1023.7571 H6            1 RES     
   29839 H6       -1089.4225  -788.0741  1022.2956 H6            1 RES     
   29840 H6       -1090.7902  -790.8215  1022.4477 H6            1 RES     
   29841 H6       -1090.2023  -790.1414  1020.9213 H6            1 RES     
   29842 H6       -1092.4808  -789.8522  1021.1581 H6            1 RES     
   29843 H6       -1092.3847  -788.3537  1023.7099 H6            1 RES     
   29844 H6       -1093.7586  -788.2028  1022.5440 H6            1 RES     
   29845 H6       -1094.0812  -790.5359  1022.3595 H6            1 RES     
   29846 H6       -1092.6817  -790.8788  1023.5100 H6            1 RES     
   29847 H6       -1095.5221  -789.9445  1024.1370 H6            1 RES     
   29848 H6       -1094.2062  -790.2436  1025.3541 H6            1 RES     
   29849 H6       -1095.1431  -792.3313  1023.2176 H6            1 RES     
   29850 H6       -1093.8715  -792.5628  1024.4594 H6            1 RES     
   29851 H6       -1095.5978  -792.4256  1026.2595 H6            1 RES     
   29852 H6       -1095.7801  -793.7820  1025.0892 H6            1 RES     
   29853 H6       -1097.5418  -792.5903  1023.8424 H6            1 RES     
   29854 H6       -1097.4518  -791.2068  1025.0126 H6            1 RES     
   29855 H6       -1097.9741  -792.8461  1025.5697 H6            1 RES     
   29856 H6       -1090.9731  -788.3494  1019.8470 H6            1 RES     
   29857 H6       -1091.7101  -787.1475  1020.9437 H6            1 RES     
   29858 H6       -1092.6209  -786.1681  1019.2992 H6            1 RES     
   29859 H6       -1092.7884  -786.8648  1017.7316 H6            1 RES     
   29860 H6       -1095.1074  -786.4666  1019.7674 H6            1 RES     
   29861 H6       -1095.6516  -787.7325  1017.6981 H6            1 RES     
   29862 H6       -1096.6828  -786.3053  1018.0051 H6            1 RES     
   29863 H6       -1095.6008  -784.9637  1016.2640 H6            1 RES     
   29864 H6       -1094.3387  -786.1877  1016.0314 H6            1 RES     
   29865 H6       -1095.8350  -786.4433  1014.2042 H6            1 RES     
   29866 H6       -1096.1002  -787.8423  1015.2622 H6            1 RES     
   29867 H6       -1098.1698  -786.7781  1016.1948 H6            1 RES     
   29868 H6       -1098.2227  -787.0561  1014.4256 H6            1 RES     
   29869 H6       -1097.7237  -784.3287  1015.7960 H6            1 RES     
   29870 H6       -1099.2240  -784.8958  1014.9963 H6            1 RES     
   29871 H6       -1098.0067  -785.0690  1012.8015 H6            1 RES     
   29872 H6       -1097.9839  -783.4001  1013.4878 H6            1 RES     
   29873 H6       -1096.5137  -784.4139  1013.5910 H6            1 RES     
   29874 H6       -1094.1959  -784.3378  1019.9239 H6            1 RES     
   29875 H6       -1095.5669  -784.1638  1018.7922 H6            1 RES     
   29876 H6       -1093.7115  -784.1910  1016.8946 H6            1 RES     
   29877 H6       -1092.5104  -784.1674  1018.1935 H6            1 RES     
   29878 H6       -1092.9366  -781.9907  1017.1595 H6            1 RES     
   29879 H6       -1094.6825  -782.0501  1017.5802 H6            1 RES     
   29880 H6       -1092.3557  -781.9441  1019.6305 H6            1 RES     
   29881 H6       -1094.1186  -781.9731  1020.0034 H6            1 RES     
   29882 H6       -1094.4268  -779.7926  1018.7934 H6            1 RES     
   29883 H6       -1093.3150  -779.7072  1020.2058 H6            1 RES     
   29884 H6       -1092.4135  -779.8698  1017.2575 H6            1 RES     
   29885 H6       -1091.3219  -779.7819  1018.6857 H6            1 RES     
   29886 H6       -1091.5882  -777.6218  1017.4811 H6            1 RES     
   29887 H6       -1093.3643  -777.6405  1017.7647 H6            1 RES     
   29888 H6       -1092.9488  -777.4592  1020.2444 H6            1 RES     
   29889 H6       -1092.1565  -776.1291  1019.3380 H6            1 RES     
   29890 H6       -1091.1622  -777.5081  1019.9374 H6            1 RES     
   29891 C0       -1089.6983  -797.4527  1028.2401 C0            1 RES     
   29892 C0       -1089.2421  -798.9672  1028.2036 C0            1 RES     
   29893 C0       -1088.8125  -799.3138  1026.9671 C0            1 RES     
   29894 S1       -1088.2712  -800.8980  1026.8482 S1            1 RES     
   29895 C0       -1088.5740  -801.2313  1028.4867 C0            1 RES     
   29896 C0       -1089.1754  -800.1006  1029.0577 C0            1 RES     
   29897 C0       -1089.0170  -798.2349  1026.0735 C0            1 RES     
   29898 C0       -1089.5204  -797.2183  1026.7359 C0            1 RES     
   29899 C0       -1089.9378  -796.1774  1025.8390 C0            1 RES     
   29900 C0       -1089.7159  -796.5231  1024.5184 C0            1 RES     
   29901 S1       -1088.9073  -798.1175  1024.2972 S1            1 RES     
   29902 H2       -1089.4981  -800.1186  1030.0664 H2            1 RES     
   29903 H2       -1090.4736  -795.3276  1026.1409 H2            1 RES     
   29904 N3       -1087.8070  -803.5960  1031.3611 N3            1 RES     
   29905 C0       -1088.2394  -802.5154  1030.6524 C0            1 RES     
   29906 C0       -1088.1751  -802.4763  1029.2341 C0            1 RES     
   29907 C0       -1087.6514  -803.6245  1028.6016 C0            1 RES     
   29908 N3       -1087.5182  -803.7736  1027.2580 N3            1 RES     
   29909 S1       -1086.8659  -805.2847  1027.1269 S1            1 RES     
   29910 N3       -1086.7199  -805.7929  1028.6884 N3            1 RES     
   29911 C0       -1087.2128  -804.7335  1029.3831 C0            1 RES     
   29912 C0       -1087.2945  -804.6999  1030.7642 C0            1 RES     
   29913 H4       -1088.6008  -801.6801  1031.2156 H4            1 RES     
   29914 C5       -1081.1225  -804.0115  1030.0596 C5            1 RES     
   29915 C5       -1082.4015  -803.9228  1029.2271 C5            1 RES     
   29916 C5       -1083.5203  -803.1276  1029.9212 C5            1 RES     
   29917 C5       -1083.1872  -801.6354  1030.1037 C5            1 RES     
   29918 C5       -1084.3575  -800.8893  1030.7625 C5            1 RES     
   29919 C5       -1084.0966  -799.3678  1030.8153 C5            1 RES     
   29920 C5       -1085.2537  -798.5261  1031.4163 C5            1 RES     
   29921 C5       -1086.5829  -798.8741  1030.7440 C5            1 RES     
   29922 C5       -1087.7590  -797.8780  1030.9039 C5            1 RES     
   29923 C5       -1088.4596  -797.7287  1032.3094 C5            1 RES     
   29924 C5       -1089.2899  -799.0238  1032.5282 C5            1 RES     
   29925 C5       -1090.2088  -799.3697  1033.7058 C5            1 RES     
   29926 C5       -1090.7924  -800.7769  1033.3502 C5            1 RES     
   29927 C5       -1091.7651  -801.4217  1034.3360 C5            1 RES     
   29928 C5       -1093.1213  -800.7284  1034.3784 C5            1 RES     
   29929 C5       -1087.6372  -796.6752  1029.9572 C5            1 RES     
   29930 C0       -1088.9981  -796.3285  1029.2251 C0            1 RES     
   29931 C5       -1088.9745  -794.7965  1028.8019 C5            1 RES     
   29932 C5       -1090.1590  -793.8836  1029.2755 C5            1 RES     
   29933 C5       -1091.3925  -793.8890  1028.3270 C5            1 RES     
   29934 C5       -1091.2336  -793.0527  1027.0350 C5            1 RES     
   29935 C5       -1092.3468  -793.3065  1025.9996 C5            1 RES     
   29936 C5       -1093.7347  -792.7668  1026.3790 C5            1 RES     
   29937 C5       -1093.8135  -791.2341  1026.5174 C5            1 RES     
   29938 C5       -1093.4224  -790.4914  1025.2359 C5            1 RES     
   29939 C5       -1089.7054  -792.4250  1029.6718 C5            1 RES     
   29940 C5       -1088.7377  -791.6938  1028.7007 C5            1 RES     
   29941 C5       -1088.5179  -790.1978  1029.0193 C5            1 RES     
   29942 C5       -1087.8794  -789.9063  1030.3919 C5            1 RES     
   29943 C5       -1087.6269  -788.3976  1030.6328 C5            1 RES     
   29944 C5       -1086.5538  -787.7935  1029.7004 C5            1 RES     
   29945 C5       -1086.3041  -786.2897  1029.9242 C5            1 RES     
   29946 C5       -1085.7273  -785.9552  1031.2998 C5            1 RES     
   29947 H6       -1080.6738  -803.0100  1030.2160 H6            1 RES     
   29948 H6       -1080.3781  -804.6400  1029.5269 H6            1 RES     
   29949 H6       -1081.3394  -804.4776  1031.0443 H6            1 RES     
   29950 H6       -1082.1725  -803.4736  1028.2359 H6            1 RES     
   29951 H6       -1082.7683  -804.9588  1029.0578 H6            1 RES     
   29952 H6       -1084.4287  -803.2058  1029.2826 H6            1 RES     
   29953 H6       -1083.7492  -803.5929  1030.9042 H6            1 RES     
   29954 H6       -1082.9909  -801.1985  1029.0989 H6            1 RES     
   29955 H6       -1082.2841  -801.5045  1030.7343 H6            1 RES     
   29956 H6       -1085.2568  -801.0859  1030.1406 H6            1 RES     
   29957 H6       -1084.5328  -801.2845  1031.7858 H6            1 RES     
   29958 H6       -1083.1666  -799.1583  1031.3863 H6            1 RES     
   29959 H6       -1083.9372  -799.0238  1029.7686 H6            1 RES     
   29960 H6       -1085.3494  -798.6911  1032.5110 H6            1 RES     
   29961 H6       -1085.0014  -797.4582  1031.2403 H6            1 RES     
   29962 H6       -1086.8868  -799.8798  1031.0895 H6            1 RES     
   29963 H6       -1086.3991  -798.9704  1029.6496 H6            1 RES     
   29964 H6       -1088.5026  -798.3514  1030.3730 H6            1 RES     
   29965 H6       -1087.7127  -797.5427  1033.1096 H6            1 RES     
   29966 H6       -1089.1794  -796.8809  1032.2846 H6            1 RES     
   29967 H6       -1090.0168  -799.0098  1031.6945 H6            1 RES     
   29968 H6       -1088.5687  -799.8557  1032.4607 H6            1 RES     
   29969 H6       -1091.0192  -798.6147  1033.7979 H6            1 RES     
   29970 H6       -1089.6327  -799.4199  1034.6529 H6            1 RES     
   29971 H6       -1091.2992  -800.7431  1032.3567 H6            1 RES     
   29972 H6       -1089.9372  -801.4820  1033.2577 H6            1 RES     
   29973 H6       -1091.3091  -801.4762  1035.3452 H6            1 RES     
   29974 H6       -1091.9478  -802.4623  1033.9805 H6            1 RES     
   29975 H6       -1093.5786  -800.7190  1033.3640 H6            1 RES     
   29976 H6       -1093.0231  -799.6908  1034.7518 H6            1 RES     
   29977 H6       -1093.7955  -801.2980  1035.0533 H6            1 RES     
   29978 H6       -1086.9193  -796.8680  1029.1308 H6            1 RES     
   29979 H6       -1087.2121  -795.8511  1030.5698 H6            1 RES     
   29980 H6       -1088.1252  -794.3653  1029.3651 H6            1 RES     
   29981 H6       -1088.6674  -794.6292  1027.7504 H6            1 RES     
   29982 H6       -1090.5210  -794.3262  1030.2310 H6            1 RES     
   29983 H6       -1091.6227  -794.9490  1028.0911 H6            1 RES     
   29984 H6       -1092.2682  -793.4776  1028.8741 H6            1 RES     
   29985 H6       -1091.1937  -791.9716  1027.2680 H6            1 RES     
   29986 H6       -1090.2708  -793.3069  1026.5533 H6            1 RES     
   29987 H6       -1092.0403  -792.8550  1025.0342 H6            1 RES     
   29988 H6       -1092.4392  -794.3966  1025.8161 H6            1 RES     
   29989 H6       -1094.0725  -793.2390  1027.3252 H6            1 RES     
   29990 H6       -1094.4443  -793.0750  1025.5802 H6            1 RES     
   29991 H6       -1093.1772  -790.8821  1027.3552 H6            1 RES     
   29992 H6       -1094.8653  -790.9712  1026.7600 H6            1 RES     
   29993 H6       -1094.0509  -790.8284  1024.3840 H6            1 RES     
   29994 H6       -1093.5709  -789.4009  1025.3782 H6            1 RES     
   29995 H6       -1092.3526  -790.6515  1024.9888 H6            1 RES     
   29996 H6       -1089.1627  -792.4890  1030.6396 H6            1 RES     
   29997 H6       -1090.6166  -791.8139  1029.8516 H6            1 RES     
   29998 H6       -1089.1110  -791.7140  1027.6682 H6            1 RES     
   29999 H6       -1087.7543  -792.2103  1028.6896 H6            1 RES     
   30000 H6       -1087.8535  -789.8103  1028.2216 H6            1 RES     
   30001 H6       -1089.4899  -789.6613  1028.9484 H6            1 RES     
   30002 H6       -1086.9176  -790.4545  1030.4920 H6            1 RES     
   30003 H6       -1088.5710  -790.2621  1031.1824 H6            1 RES     
   30004 H6       -1088.5813  -787.8373  1030.5236 H6            1 RES     
   30005 H6       -1087.2809  -788.2860  1031.6837 H6            1 RES     
   30006 H6       -1086.8805  -787.8987  1028.6470 H6            1 RES     
   30007 H6       -1085.5967  -788.3452  1029.8266 H6            1 RES     
   30008 H6       -1085.5701  -785.9485  1029.1609 H6            1 RES     
   30009 H6       -1087.2474  -785.7227  1029.7701 H6            1 RES     
   30010 H6       -1086.4412  -786.2114  1032.1081 H6            1 RES     
   30011 H6       -1085.5257  -784.8639  1031.3565 H6            1 RES     
   30012 H6       -1084.7717  -786.4979  1031.4604 H6            1 RES     
   30013 C0       -1086.3939  -807.7830  1035.0915 C0            1 RES     
   30014 C0       -1086.2824  -809.3011  1034.6606 C0            1 RES     
   30015 C0       -1086.1243  -809.4138  1033.3205 C0            1 RES     
   30016 S1       -1085.9576  -810.9940  1032.7801 S1            1 RES     
   30017 C0       -1086.0793  -811.6487  1034.3434 C0            1 RES     
   30018 C0       -1086.3341  -810.5986  1035.2372 C0            1 RES     
   30019 C0       -1086.2231  -808.1349  1032.7215 C0            1 RES     
   30020 C0       -1086.3941  -807.2328  1033.6609 C0            1 RES     
   30021 C0       -1086.7073  -805.9521  1033.0918 C0            1 RES     
   30022 C0       -1086.7619  -806.0076  1031.7109 C0            1 RES     
   30023 S1       -1086.3545  -807.6200  1031.0189 S1            1 RES     
   30024 H2       -1086.5005  -810.7990  1036.2639 H2            1 RES     
   30025 H2       -1086.9985  -805.1181  1033.6574 H2            1 RES     
   30026 N3       -1085.4193  -814.7252  1036.4746 N3            1 RES     
   30027 C0       -1085.7106  -813.4486  1036.0971 C0            1 RES     
   30028 C0       -1085.8497  -813.0856  1034.7310 C0            1 RES     
   30029 C0       -1085.6828  -814.1241  1033.7896 C0            1 RES     
   30030 N3       -1085.7845  -813.9708  1032.4437 N3            1 RES     
   30031 S1       -1085.4968  -815.4976  1031.8852 S1            1 RES     
   30032 N3       -1085.2339  -816.3797  1033.2528 N3            1 RES     
   30033 C0       -1085.3808  -815.4462  1034.2300 C0            1 RES     
   30034 C0       -1085.2485  -815.7278  1035.5785 C0            1 RES     
   30035 H4       -1085.7980  -812.7211  1036.8772 H4            1 RES     
   30036 C5       -1079.2454  -815.9835  1033.8578 C5            1 RES     
   30037 C5       -1080.5844  -815.4770  1033.3220 C5            1 RES     
   30038 C5       -1081.3924  -814.6862  1034.3650 C5            1 RES     
   30039 C5       -1080.7249  -813.3622  1034.7800 C5            1 RES     
   30040 C5       -1081.5983  -812.6008  1035.7889 C5            1 RES     
   30041 C5       -1081.0134  -811.2054  1036.0992 C5            1 RES     
   30042 C5       -1081.8621  -810.3414  1037.0696 C5            1 RES     
   30043 C5       -1083.3194  -810.2813  1036.6084 C5            1 RES     
   30044 C5       -1084.2186  -809.1617  1037.1903 C5            1 RES     
   30045 C5       -1084.6556  -809.2302  1038.7045 C5            1 RES     
   30046 C5       -1085.7019  -810.3742  1038.8103 C5            1 RES     
   30047 C5       -1086.4892  -810.8236  1040.0468 C5            1 RES     
   30048 C5       -1087.4061  -811.9814  1039.5309 C5            1 RES     
   30049 C5       -1088.3376  -812.6613  1040.5328 C5            1 RES     
   30050 C5       -1089.4927  -811.7715  1040.9749 C5            1 RES     
   30051 C5       -1083.9838  -807.8089  1036.5028 C5            1 RES     
   30052 C0       -1085.3320  -807.0654  1036.1317 C0            1 RES     
   30053 C5       -1085.0443  -805.5052  1036.0326 C5            1 RES     
   30054 C5       -1085.9231  -804.5380  1036.9004 C5            1 RES     
   30055 C5       -1087.2555  -804.1019  1036.2253 C5            1 RES     
   30056 C5       -1087.1142  -803.0238  1035.1247 C5            1 RES     
   30057 C5       -1088.3963  -802.8254  1034.2925 C5            1 RES     
   30058 C5       -1089.5652  -802.1569  1035.0329 C5            1 RES     
   30059 C5       -1089.2934  -800.7115  1035.4929 C5            1 RES     
   30060 C5       -1088.9462  -799.7659  1034.3386 C5            1 RES     
   30061 C5       -1085.1149  -803.3180  1037.4907 C5            1 RES     
   30062 C5       -1084.1676  -802.5582  1036.5215 C5            1 RES     
   30063 C5       -1083.5886  -801.2430  1037.0897 C5            1 RES     
   30064 C5       -1082.7070  -801.4023  1038.3443 C5            1 RES     
   30065 C5       -1082.1052  -800.0623  1038.8342 C5            1 RES     
   30066 C5       -1081.0775  -799.4514  1037.8561 C5            1 RES     
   30067 C5       -1080.4819  -798.1115  1038.3291 C5            1 RES     
   30068 C5       -1079.6503  -798.2197  1039.6072 C5            1 RES     
   30069 H6       -1078.5749  -815.1423  1034.1257 H6            1 RES     
   30070 H6       -1078.7395  -816.5879  1033.0757 H6            1 RES     
   30071 H6       -1079.4090  -816.6248  1034.7499 H6            1 RES     
   30072 H6       -1080.4138  -814.8525  1032.4179 H6            1 RES     
   30073 H6       -1081.1851  -816.3624  1033.0191 H6            1 RES     
   30074 H6       -1082.3807  -814.4502  1033.9102 H6            1 RES     
   30075 H6       -1081.5676  -815.3242  1035.2579 H6            1 RES     
   30076 H6       -1080.5904  -812.7404  1033.8665 H6            1 RES     
   30077 H6       -1079.7317  -813.5450  1035.2387 H6            1 RES     
   30078 H6       -1082.6005  -812.4835  1035.3244 H6            1 RES     
   30079 H6       -1081.7009  -813.1909  1036.7246 H6            1 RES     
   30080 H6       -1079.9863  -811.3037  1036.5116 H6            1 RES     
   30081 H6       -1080.9405  -810.6559  1035.1337 H6            1 RES     
   30082 H6       -1081.8282  -810.7422  1038.1053 H6            1 RES     
   30083 H6       -1081.4163  -809.3233  1037.0695 H6            1 RES     
   30084 H6       -1083.7767  -811.2711  1036.7936 H6            1 RES     
   30085 H6       -1083.3241  -810.1456  1035.5028 H6            1 RES     
   30086 H6       -1085.1163  -809.3576  1036.7269 H6            1 RES     
   30087 H6       -1083.7765  -809.3733  1039.3673 H6            1 RES     
   30088 H6       -1085.1732  -808.2882  1038.9913 H6            1 RES     
   30089 H6       -1086.5240  -810.0354  1038.1521 H6            1 RES     
   30090 H6       -1085.1932  -811.2793  1038.4378 H6            1 RES     
   30091 H6       -1087.0969  -809.9821  1040.4444 H6            1 RES     
   30092 H6       -1085.8038  -811.1974  1040.8353 H6            1 RES     
   30093 H6       -1088.0349  -811.6243  1038.6812 H6            1 RES     
   30094 H6       -1086.7446  -812.7828  1039.1346 H6            1 RES     
   30095 H6       -1087.7597  -813.0330  1041.4031 H6            1 RES     
   30096 H6       -1088.7889  -813.5391  1040.0148 H6            1 RES     
   30097 H6       -1090.0822  -811.4415  1040.0906 H6            1 RES     
   30098 H6       -1089.1211  -810.8860  1041.5257 H6            1 RES     
   30099 H6       -1090.1659  -812.3580  1041.6362 H6            1 RES     
   30100 H6       -1083.4537  -807.9225  1035.5324 H6            1 RES     
   30101 H6       -1083.3067  -807.2415  1037.1771 H6            1 RES     
   30102 H6       -1084.0489  -805.3757  1036.4981 H6            1 RES     
   30103 H6       -1084.8673  -805.1494  1034.9982 H6            1 RES     
   30104 H6       -1086.2262  -805.1246  1037.7971 H6            1 RES     
   30105 H6       -1087.7392  -805.0183  1035.8272 H6            1 RES     
   30106 H6       -1087.9324  -803.6855  1037.0024 H6            1 RES     
   30107 H6       -1086.8103  -802.0532  1035.5607 H6            1 RES     
   30108 H6       -1086.3100  -803.3208  1034.4257 H6            1 RES     
   30109 H6       -1088.1465  -802.2184  1033.3987 H6            1 RES     
   30110 H6       -1088.7456  -803.8072  1033.9122 H6            1 RES     
   30111 H6       -1089.8526  -802.7736  1035.9101 H6            1 RES     
   30112 H6       -1090.4344  -802.1373  1034.3395 H6            1 RES     
   30113 H6       -1088.4799  -800.6856  1036.2468 H6            1 RES     
   30114 H6       -1090.2170  -800.3337  1035.9811 H6            1 RES     
   30115 H6       -1089.7510  -799.7755  1033.5727 H6            1 RES     
   30116 H6       -1088.8356  -798.7318  1034.7257 H6            1 RES     
   30117 H6       -1087.9839  -800.0475  1033.8635 H6            1 RES     
   30118 H6       -1084.4616  -803.7041  1038.3027 H6            1 RES     
   30119 H6       -1085.8376  -802.6172  1037.9626 H6            1 RES     
   30120 H6       -1084.6849  -802.2668  1035.5977 H6            1 RES     
   30121 H6       -1083.3299  -803.2212  1036.2170 H6            1 RES     
   30122 H6       -1082.9819  -800.7996  1036.2752 H6            1 RES     
   30123 H6       -1084.4230  -800.5433  1037.3173 H6            1 RES     
   30124 H6       -1081.8805  -802.1183  1038.1442 H6            1 RES     
   30125 H6       -1083.3341  -801.8089  1039.1635 H6            1 RES     
   30126 H6       -1082.9232  -799.3338  1039.0266 H6            1 RES     
   30127 H6       -1081.5919  -800.2658  1039.7995 H6            1 RES     
   30128 H6       -1081.5711  -799.2445  1036.8859 H6            1 RES     
   30129 H6       -1080.2525  -800.1762  1037.6813 H6            1 RES     
   30130 H6       -1079.8130  -797.7327  1037.5248 H6            1 RES     
   30131 H6       -1081.2944  -797.3680  1038.4775 H6            1 RES     
   30132 H6       -1080.2750  -798.5314  1040.4680 H6            1 RES     
   30133 H6       -1079.2140  -797.2257  1039.8451 H6            1 RES     
   30134 H6       -1078.8198  -798.9438  1039.4676 H6            1 RES     
   30135 C0       -1084.3986  -819.8593  1038.9327 C0            1 RES     
   30136 C0       -1084.6790  -821.2270  1038.1887 C0            1 RES     
   30137 C0       -1084.7483  -821.0440  1036.8488 C0            1 RES     
   30138 S1       -1085.0048  -822.4546  1035.9763 S1            1 RES     
   30139 C0       -1085.0313  -823.4302  1037.3673 C0            1 RES     
   30140 C0       -1084.9210  -822.5946  1038.4881 C0            1 RES     
   30141 C0       -1084.6589  -819.6625  1036.5529 C0            1 RES     
   30142 C0       -1084.4925  -818.9937  1037.6713 C0            1 RES     
   30143 C0       -1084.6053  -817.5800  1037.4457 C0            1 RES     
   30144 C0       -1084.8739  -817.2954  1036.1191 C0            1 RES     
   30145 S1       -1084.9272  -818.7430  1035.0484 S1            1 RES     
   30146 H2       -1084.9729  -823.0008  1039.4649 H2            1 RES     
   30147 H2       -1084.6248  -816.8665  1038.2143 H2            1 RES     
   30148 N3       -1084.7367  -826.9915  1038.6607 N3            1 RES     
   30149 C0       -1084.8010  -825.6311  1038.6140 C0            1 RES     
   30150 C0       -1085.0594  -824.9354  1037.4030 C0            1 RES     
   30151 C0       -1085.2593  -825.7333  1036.2558 C0            1 RES     
   30152 N3       -1085.5235  -825.2492  1035.0143 N3            1 RES     
   30153 S1       -1085.6545  -826.6258  1034.1121 S1            1 RES     
   30154 N3       -1085.3870  -827.8395  1035.1952 N3            1 RES     
   30155 C0       -1085.1851  -827.1539  1036.3515 C0            1 RES     
   30156 C0       -1084.9183  -827.7665  1037.5635 C0            1 RES     
   30157 H4       -1084.6146  -825.1060  1039.5277 H4            1 RES     
   30158 C5       -1079.4301  -828.6532  1034.7076 C5            1 RES     
   30159 C5       -1080.6941  -827.8076  1034.5532 C5            1 RES     
   30160 C5       -1081.1513  -827.1582  1035.8705 C5            1 RES     
   30161 C5       -1080.1624  -826.1087  1036.4103 C5            1 RES     
   30162 C5       -1080.6942  -825.4680  1037.7015 C5            1 RES     
   30163 C5       -1079.7853  -824.3108  1038.1712 C5            1 RES     
   30164 C5       -1080.2769  -823.5672  1039.4416 C5            1 RES     
   30165 C5       -1081.7394  -823.1451  1039.2906 C5            1 RES     
   30166 C5       -1082.2826  -822.0561  1040.2497 C5            1 RES     
   30167 C5       -1082.4956  -822.4047  1041.7734 C5            1 RES     
   30168 C5       -1083.7348  -823.3397  1041.8429 C5            1 RES     
   30169 C5       -1084.4085  -823.9249  1043.0897 C5            1 RES     
   30170 C5       -1085.6174  -824.7480  1042.5347 C5            1 RES     
   30171 C5       -1086.5143  -825.4726  1043.5369 C5            1 RES     
   30172 C5       -1087.3744  -824.5252  1044.3641 C5            1 RES     
   30173 C5       -1081.8683  -820.6413  1039.8199 C5            1 RES     
   30174 C0       -1083.0662  -819.6067  1039.8737 C0            1 RES     
   30175 C5       -1082.4696  -818.1428  1040.0409 C5            1 RES     
   30176 C5       -1082.9833  -817.2710  1041.2395 C5            1 RES     
   30177 C5       -1084.2765  -816.4606  1040.9358 C5            1 RES     
   30178 C5       -1084.0722  -815.1938  1040.0715 C5            1 RES     
   30179 C5       -1085.3908  -814.5821  1039.5589 C5            1 RES     
   30180 C5       -1086.2674  -813.9145  1040.6302 C5            1 RES     
   30181 C5       -1085.6280  -812.6904  1041.3138 C5            1 RES     
   30182 C5       -1085.2612  -811.5735  1040.3314 C5            1 RES     
   30183 C5       -1081.8549  -816.3870  1041.8995 C5            1 RES     
   30184 C5       -1080.9209  -815.5967  1040.9419 C5            1 RES     
   30185 C5       -1079.9968  -814.5765  1041.6440 C5            1 RES     
   30186 C5       -1078.9942  -815.1811  1042.6469 C5            1 RES     
   30187 C5       -1078.0543  -814.1225  1043.2745 C5            1 RES     
   30188 C5       -1077.0759  -813.4865  1042.2626 C5            1 RES     
   30189 C5       -1076.1446  -812.4229  1042.8751 C5            1 RES     
   30190 C5       -1075.1758  -812.9755  1043.9206 C5            1 RES     
   30191 H6       -1078.5634  -828.0306  1035.0073 H6            1 RES     
   30192 H6       -1079.1863  -829.1335  1033.7365 H6            1 RES     
   30193 H6       -1079.5933  -829.4492  1035.4649 H6            1 RES     
   30194 H6       -1080.5294  -827.0260  1033.7795 H6            1 RES     
   30195 H6       -1081.5081  -828.4764  1034.1973 H6            1 RES     
   30196 H6       -1082.1224  -826.6517  1035.6715 H6            1 RES     
   30197 H6       -1081.3250  -827.9493  1036.6316 H6            1 RES     
   30198 H6       -1080.0346  -825.3212  1035.6341 H6            1 RES     
   30199 H6       -1079.1747  -826.5663  1036.6229 H6            1 RES     
   30200 H6       -1081.7055  -825.0700  1037.4717 H6            1 RES     
   30201 H6       -1080.7811  -826.2360  1038.4995 H6            1 RES     
   30202 H6       -1078.7535  -824.6826  1038.3500 H6            1 RES     
   30203 H6       -1079.7401  -823.5692  1037.3421 H6            1 RES     
   30204 H6       -1080.1768  -824.2022  1040.3478 H6            1 RES     
   30205 H6       -1079.6288  -822.6725  1039.5631 H6            1 RES     
   30206 H6       -1082.3652  -824.0547  1039.3548 H6            1 RES     
   30207 H6       -1081.8783  -822.7519  1038.2577 H6            1 RES     
   30208 H6       -1083.2597  -821.9760  1039.9373 H6            1 RES     
   30209 H6       -1081.5793  -822.8528  1042.2119 H6            1 RES     
   30210 H6       -1082.7518  -821.4822  1042.3398 H6            1 RES     
   30211 H6       -1084.5535  -822.7157  1041.4377 H6            1 RES     
   30212 H6       -1083.4920  -824.2051  1041.2034 H6            1 RES     
   30213 H6       -1084.7568  -823.1089  1043.7592 H6            1 RES     
   30214 H6       -1083.7100  -824.5894  1043.6391 H6            1 RES     
   30215 H6       -1086.2739  -824.0949  1041.9122 H6            1 RES     
   30216 H6       -1085.2085  -825.5355  1041.8641 H6            1 RES     
   30217 H6       -1085.9072  -826.1356  1044.1859 H6            1 RES     
   30218 H6       -1087.2142  -826.1092  1042.9475 H6            1 RES     
   30219 H6       -1088.0037  -823.8965  1043.6954 H6            1 RES     
   30220 H6       -1086.7449  -823.8750  1045.0019 H6            1 RES     
   30221 H6       -1088.0520  -825.1247  1045.0089 H6            1 RES     
   30222 H6       -1081.5240  -820.6122  1038.7634 H6            1 RES     
   30223 H6       -1080.9935  -820.3779  1040.4529 H6            1 RES     
   30224 H6       -1081.4119  -818.3040  1040.3232 H6            1 RES     
   30225 H6       -1082.3754  -817.5881  1039.0863 H6            1 RES     
   30226 H6       -1083.2689  -817.9913  1042.0392 H6            1 RES     
   30227 H6       -1084.9982  -817.1570  1040.4600 H6            1 RES     
   30228 H6       -1084.7264  -816.1288  1041.8965 H6            1 RES     
   30229 H6       -1083.5069  -814.4233  1040.6294 H6            1 RES     
   30230 H6       -1083.4623  -815.4524  1039.1856 H6            1 RES     
   30231 H6       -1085.1518  -813.8335  1038.7764 H6            1 RES     
   30232 H6       -1085.9941  -815.3686  1039.0610 H6            1 RES     
   30233 H6       -1086.5471  -814.6619  1041.4019 H6            1 RES     
   30234 H6       -1087.2049  -813.5789  1040.1351 H6            1 RES     
   30235 H6       -1084.7256  -812.9872  1041.8868 H6            1 RES     
   30236 H6       -1086.3671  -812.2837  1042.0366 H6            1 RES     
   30237 H6       -1086.1536  -811.2598  1039.7486 H6            1 RES     
   30238 H6       -1084.8762  -810.6968  1040.8923 H6            1 RES     
   30239 H6       -1084.4623  -811.8982  1039.6333 H6            1 RES     
   30240 H6       -1081.1866  -817.0633  1042.4752 H6            1 RES     
   30241 H6       -1082.3334  -815.7031  1042.6338 H6            1 RES     
   30242 H6       -1081.4947  -815.0083  1040.2135 H6            1 RES     
   30243 H6       -1080.2987  -816.3045  1040.3538 H6            1 RES     
   30244 H6       -1079.4366  -814.0656  1040.8358 H6            1 RES     
   30245 H6       -1080.6195  -813.8159  1042.1650 H6            1 RES     
   30246 H6       -1078.3787  -815.9624  1042.1505 H6            1 RES     
   30247 H6       -1079.5657  -815.6544  1043.4710 H6            1 RES     
   30248 H6       -1078.6602  -813.3290  1043.7644 H6            1 RES     
   30249 H6       -1077.4596  -814.6362  1044.0613 H6            1 RES     
   30250 H6       -1077.6516  -812.9719  1041.4680 H6            1 RES     
   30251 H6       -1076.4599  -814.2819  1041.7890 H6            1 RES     
   30252 H6       -1075.5364  -811.9871  1042.0517 H6            1 RES     
   30253 H6       -1076.7484  -811.6055  1043.3249 H6            1 RES     
   30254 H6       -1075.7185  -813.3685  1044.8035 H6            1 RES     
   30255 H6       -1074.5070  -812.1587  1044.2676 H6            1 RES     
   30256 H6       -1074.5491  -813.7796  1043.4798 H6            1 RES     
   30257 C0       -1084.4851  -832.6596  1039.7799 C0            1 RES     
   30258 C0       -1085.1580  -833.7406  1038.8410 C0            1 RES     
   30259 C0       -1085.3837  -833.2353  1037.6051 C0            1 RES     
   30260 S1       -1086.0618  -834.3309  1036.5296 S1            1 RES     
   30261 C0       -1086.0904  -835.5888  1037.6716 C0            1 RES     
   30262 C0       -1085.6397  -835.0760  1038.8965 C0            1 RES     
   30263 C0       -1085.0459  -831.8607  1037.5851 C0            1 RES     
   30264 C0       -1084.5771  -831.5165  1038.7630 C0            1 RES     
   30265 C0       -1084.4173  -830.0924  1038.8557 C0            1 RES     
   30266 C0       -1084.8117  -829.4584  1037.6916 C0            1 RES     
   30267 S1       -1085.3307  -830.5778  1036.3792 S1            1 RES     
   30268 H2       -1085.6324  -835.6871  1039.7616 H2            1 RES     
   30269 H2       -1084.1701  -829.5899  1039.7426 H2            1 RES     
   30270 N3       -1086.3759  -839.3503  1038.1319 N3            1 RES     
   30271 C0       -1086.1542  -838.0282  1038.3763 C0            1 RES     
   30272 C0       -1086.4340  -837.0305  1037.4048 C0            1 RES     
   30273 C0       -1086.9669  -837.4854  1036.1794 C0            1 RES     
   30274 N3       -1087.3020  -836.6817  1035.1367 N3            1 RES     
   30275 S1       -1087.8559  -837.7597  1034.0155 S1            1 RES     
   30276 N3       -1087.6970  -839.2234  1034.7570 N3            1 RES     
   30277 C0       -1087.1847  -838.8785  1035.9679 C0            1 RES     
   30278 C0       -1086.8790  -839.7984  1036.9556 C0            1 RES     
   30279 H4       -1085.7271  -837.7761  1039.3247 H4            1 RES     
   30280 C5       -1082.1905  -840.9282  1032.9801 C5            1 RES     
   30281 C5       -1083.2532  -839.8622  1033.2466 C5            1 RES     
   30282 C5       -1083.3614  -839.4747  1034.7312 C5            1 RES     
   30283 C5       -1082.1024  -838.7733  1035.2733 C5            1 RES     
   30284 C5       -1082.2883  -838.3747  1036.7454 C5            1 RES     
   30285 C5       -1081.0939  -837.5398  1037.2575 C5            1 RES     
   30286 C5       -1081.2222  -837.0450  1038.7228 C5            1 RES     
   30287 C5       -1082.5666  -836.3497  1038.9444 C5            1 RES     
   30288 C5       -1082.7167  -835.4420  1040.1911 C5            1 RES     
   30289 C5       -1082.7718  -836.0997  1041.6239 C5            1 RES     
   30290 C5       -1084.1580  -836.7926  1041.7381 C5            1 RES     
   30291 C5       -1084.7495  -837.5299  1042.9453 C5            1 RES     
   30292 C5       -1086.1748  -837.9728  1042.4769 C5            1 RES     
   30293 C5       -1087.0477  -838.7461  1043.4637 C5            1 RES     
   30294 C5       -1087.5536  -837.8868  1044.6158 C5            1 RES     
   30295 C5       -1082.0778  -834.0606  1039.9869 C5            1 RES     
   30296 C0       -1083.0055  -832.8751  1040.4790 C0            1 RES     
   30297 C5       -1082.0918  -831.6207  1040.8230 C5            1 RES     
   30298 C5       -1082.2245  -830.9825  1042.2498 C5            1 RES     
   30299 C5       -1083.3450  -829.9096  1042.3713 C5            1 RES     
   30300 C5       -1083.0047  -828.5296  1041.7601 C5            1 RES     
   30301 C5       -1084.2231  -827.5925  1041.6455 C5            1 RES     
   30302 C5       -1084.7686  -827.0556  1042.9781 C5            1 RES     
   30303 C5       -1083.7886  -826.1603  1043.7609 C5            1 RES     
   30304 C5       -1083.3408  -824.9241  1042.9747 C5            1 RES     
   30305 C5       -1080.8485  -830.4922  1042.8468 C5            1 RES     
   30306 C5       -1079.9192  -829.6731  1041.9090 C5            1 RES     
   30307 C5       -1078.7050  -829.0269  1042.6134 C5            1 RES     
   30308 C5       -1077.7180  -830.0185  1043.2609 C5            1 RES     
   30309 C5       -1076.4914  -829.3207  1043.8986 C5            1 RES     
   30310 C5       -1075.5601  -828.6439  1042.8687 C5            1 RES     
   30311 C5       -1074.3430  -827.9363  1043.4946 C5            1 RES     
   30312 C5       -1073.3712  -828.8823  1044.1999 C5            1 RES     
   30313 H6       -1081.1762  -840.5563  1033.2283 H6            1 RES     
   30314 H6       -1082.2011  -841.1991  1031.9033 H6            1 RES     
   30315 H6       -1082.4064  -841.8401  1033.5766 H6            1 RES     
   30316 H6       -1083.0414  -838.9605  1032.6313 H6            1 RES     
   30317 H6       -1084.2347  -840.2742  1032.9250 H6            1 RES     
   30318 H6       -1084.2202  -838.7734  1034.8296 H6            1 RES     
   30319 H6       -1083.5857  -840.3809  1035.3342 H6            1 RES     
   30320 H6       -1081.9254  -837.8588  1034.6638 H6            1 RES     
   30321 H6       -1081.2150  -839.4340  1035.1948 H6            1 RES     
   30322 H6       -1083.2138  -837.7628  1036.7999 H6            1 RES     
   30323 H6       -1082.4185  -839.2829  1037.3719 H6            1 RES     
   30324 H6       -1080.1507  -838.1181  1037.1555 H6            1 RES     
   30325 H6       -1081.0143  -836.6422  1036.6037 H6            1 RES     
   30326 H6       -1081.1273  -837.8845  1039.4445 H6            1 RES     
   30327 H6       -1080.3872  -836.3325  1038.8972 H6            1 RES     
   30328 H6       -1083.3558  -837.1245  1038.9410 H6            1 RES     
   30329 H6       -1082.7692  -835.7043  1038.0594 H6            1 RES     
   30330 H6       -1083.6893  -835.1201  1040.0949 H6            1 RES     
   30331 H6       -1081.9180  -836.7925  1041.7779 H6            1 RES     
   30332 H6       -1082.7384  -835.3080  1042.4046 H6            1 RES     
   30333 H6       -1084.8751  -835.9568  1041.6332 H6            1 RES     
   30334 H6       -1084.2029  -837.5100  1040.9014 H6            1 RES     
   30335 H6       -1084.8125  -836.8483  1043.8210 H6            1 RES     
   30336 H6       -1084.1358  -838.4177  1043.2035 H6            1 RES     
   30337 H6       -1086.7611  -837.0860  1042.1382 H6            1 RES     
   30338 H6       -1086.0472  -838.6375  1041.5943 H6            1 RES     
   30339 H6       -1086.5073  -839.6402  1043.8354 H6            1 RES     
   30340 H6       -1087.9467  -839.0918  1042.9026 H6            1 RES     
   30341 H6       -1088.1257  -837.0172  1044.2225 H6            1 RES     
   30342 H6       -1086.7126  -837.5274  1045.2396 H6            1 RES     
   30343 H6       -1088.2409  -838.4942  1045.2428 H6            1 RES     
   30344 H6       -1081.8951  -833.8421  1038.9125 H6            1 RES     
   30345 H6       -1081.0833  -834.1125  1040.4804 H6            1 RES     
   30346 H6       -1081.0632  -832.0269  1040.8582 H6            1 RES     
   30347 H6       -1082.0233  -830.8804  1040.0013 H6            1 RES     
   30348 H6       -1082.5362  -831.8106  1042.9257 H6            1 RES     
   30349 H6       -1084.2610  -830.3355  1041.9112 H6            1 RES     
   30350 H6       -1083.5667  -829.7420  1043.4475 H6            1 RES     
   30351 H6       -1082.2117  -828.0249  1042.3440 H6            1 RES     
   30352 H6       -1082.6018  -828.6730  1040.7399 H6            1 RES     
   30353 H6       -1083.9479  -826.7332  1041.0007 H6            1 RES     
   30354 H6       -1085.0472  -828.1200  1041.1231 H6            1 RES     
   30355 H6       -1085.0845  -827.9040  1043.6206 H6            1 RES     
   30356 H6       -1085.6753  -826.4532  1042.7510 H6            1 RES     
   30357 H6       -1082.8960  -826.7380  1044.0774 H6            1 RES     
   30358 H6       -1084.3087  -825.8141  1044.6795 H6            1 RES     
   30359 H6       -1084.2216  -824.3296  1042.6502 H6            1 RES     
   30360 H6       -1082.6989  -824.2870  1043.6177 H6            1 RES     
   30361 H6       -1082.7418  -825.2084  1042.0850 H6            1 RES     
   30362 H6       -1080.2627  -831.3921  1043.1336 H6            1 RES     
   30363 H6       -1081.0560  -829.9293  1043.7829 H6            1 RES     
   30364 H6       -1080.4550  -828.8374  1041.4396 H6            1 RES     
   30365 H6       -1079.5564  -830.3187  1041.0810 H6            1 RES     
   30366 H6       -1078.1742  -828.4449  1041.8340 H6            1 RES     
   30367 H6       -1079.0669  -828.3150  1043.3880 H6            1 RES     
   30368 H6       -1077.3638  -830.7548  1042.5072 H6            1 RES     
   30369 H6       -1078.2492  -830.5663  1044.0654 H6            1 RES     
   30370 H6       -1076.8345  -828.5727  1044.6467 H6            1 RES     
   30371 H6       -1075.9107  -830.1025  1044.4353 H6            1 RES     
   30372 H6       -1076.1235  -827.8627  1042.3210 H6            1 RES     
   30373 H6       -1075.2052  -829.3992  1042.1339 H6            1 RES     
   30374 H6       -1073.7842  -827.4307  1042.6760 H6            1 RES     
   30375 H6       -1074.6849  -827.1564  1044.2086 H6            1 RES     
   30376 H6       -1073.8488  -829.3724  1045.0717 H6            1 RES     
   30377 H6       -1072.4995  -828.3014  1044.5710 H6            1 RES     
   30378 H6       -1073.0030  -829.6556  1043.4928 H6            1 RES     
   30379 C0       -1087.1789  -845.0759  1038.0045 C0            1 RES     
   30380 C0       -1088.1985  -845.7679  1037.0122 C0            1 RES     
   30381 C0       -1088.4910  -844.9520  1035.9718 C0            1 RES     
   30382 S1       -1089.5387  -845.6246  1034.8463 S1            1 RES     
   30383 C0       -1089.6665  -847.0927  1035.6922 C0            1 RES     
   30384 C0       -1088.9408  -846.9727  1036.8861 C0            1 RES     
   30385 C0       -1087.8740  -843.6930  1036.1675 C0            1 RES     
   30386 C0       -1087.1737  -843.7261  1037.2785 C0            1 RES     
   30387 C0       -1086.7013  -842.4154  1037.6267 C0            1 RES     
   30388 C0       -1087.1187  -841.4640  1036.7138 C0            1 RES     
   30389 S1       -1088.0529  -842.1309  1035.3255 S1            1 RES     
   30390 H2       -1088.9365  -847.7633  1037.5909 H2            1 RES     
   30391 H2       -1086.2242  -842.1892  1038.5331 H2            1 RES     
   30392 N3       -1090.6781  -850.7461  1035.4234 N3            1 RES     
   30393 C0       -1090.1453  -849.5797  1035.8845 C0            1 RES     
   30394 C0       -1090.3458  -848.3467  1035.2086 C0            1 RES     
   30395 C0       -1091.1386  -848.3969  1034.0418 C0            1 RES     
   30396 N3       -1091.4444  -847.3227  1033.2686 N3            1 RES     
   30397 S1       -1092.3753  -847.9892  1032.0790 S1            1 RES     
   30398 N3       -1092.4252  -849.5918  1032.4625 N3            1 RES     
   30399 C0       -1091.6779  -849.6396  1033.5970 C0            1 RES     
   30400 C0       -1091.4334  -850.8067  1034.2994 C0            1 RES     
   30401 H4       -1089.5389  -849.6390  1036.7644 H4            1 RES     
   30402 C5       -1087.7345  -851.7628  1029.3530 C5            1 RES     
   30403 C5       -1088.4935  -850.6215  1030.0297 C5            1 RES     
   30404 C5       -1088.2959  -850.5849  1031.5546 C5            1 RES     
   30405 C5       -1086.8502  -850.2640  1031.9763 C5            1 RES     
   30406 C5       -1086.7271  -850.2003  1033.5064 C5            1 RES     
   30407 C5       -1085.3197  -849.7334  1033.9388 C5            1 RES     
   30408 C5       -1085.1213  -849.5862  1035.4709 C5            1 RES     
   30409 C5       -1086.2382  -848.7392  1036.0832 C5            1 RES     
   30410 C5       -1086.0051  -848.1417  1037.4937 C5            1 RES     
   30411 C5       -1085.9873  -849.1008  1038.7460 C5            1 RES     
   30412 C5       -1087.4571  -849.5473  1038.9806 C5            1 RES     
   30413 C5       -1088.0075  -850.4350  1040.1030 C5            1 RES     
   30414 C5       -1089.5477  -850.4973  1039.8367 C5            1 RES     
   30415 C5       -1090.4102  -851.3177  1040.7942 C5            1 RES     
   30416 C5       -1090.5449  -850.6818  1042.1722 C5            1 RES     
   30417 C5       -1085.1231  -846.8853  1037.4562 C5            1 RES     
   30418 C0       -1085.6929  -845.7070  1038.3479 C0            1 RES     
   30419 C5       -1084.4917  -844.7501  1038.7582 C5            1 RES     
   30420 C5       -1084.2728  -844.4560  1040.2834 C5            1 RES     
   30421 C5       -1085.1076  -843.2636  1040.8334 C5            1 RES     
   30422 C5       -1084.5743  -841.8595  1040.4622 C5            1 RES     
   30423 C5       -1085.5675  -840.7235  1040.7767 C5            1 RES     
   30424 C5       -1085.7828  -840.4316  1042.2700 C5            1 RES     
   30425 C5       -1084.5295  -839.9338  1043.0158 C5            1 RES     
   30426 C5       -1083.9490  -838.6442  1042.4266 C5            1 RES     
   30427 C5       -1082.7510  -844.3704  1040.6923 C5            1 RES     
   30428 C5       -1081.8171  -843.5278  1039.7804 C5            1 RES     
   30429 C5       -1080.4025  -843.2903  1040.3552 C5            1 RES     
   30430 C5       -1079.5656  -844.5643  1040.5856 C5            1 RES     
   30431 C5       -1078.1378  -844.2639  1041.1045 C5            1 RES     
   30432 C5       -1077.2460  -843.5357  1040.0748 C5            1 RES     
   30433 C5       -1075.8270  -843.2214  1040.5861 C5            1 RES     
   30434 C5       -1074.9865  -844.4629  1040.8843 C5            1 RES     
   30435 H6       -1086.6388  -851.6440  1029.4723 H6            1 RES     
   30436 H6       -1087.9617  -851.7639  1028.2660 H6            1 RES     
   30437 H6       -1088.0497  -852.7379  1029.7814 H6            1 RES     
   30438 H6       -1088.1871  -849.6508  1029.5818 H6            1 RES     
   30439 H6       -1089.5769  -850.7669  1029.8254 H6            1 RES     
   30440 H6       -1088.9608  -849.7878  1031.9567 H6            1 RES     
   30441 H6       -1088.6171  -851.5547  1031.9922 H6            1 RES     
   30442 H6       -1086.5738  -849.2765  1031.5433 H6            1 RES     
   30443 H6       -1086.1460  -851.0320  1031.5961 H6            1 RES     
   30444 H6       -1087.4820  -849.4665  1033.8609 H6            1 RES     
   30445 H6       -1086.9544  -851.1940  1033.9480 H6            1 RES     
   30446 H6       -1084.5474  -850.4269  1033.5422 H6            1 RES     
   30447 H6       -1085.1475  -848.7344  1033.4785 H6            1 RES     
   30448 H6       -1085.1025  -850.5764  1035.9747 H6            1 RES     
   30449 H6       -1084.1370  -849.0931  1035.6232 H6            1 RES     
   30450 H6       -1087.1664  -849.3404  1036.0736 H6            1 RES     
   30451 H6       -1086.4267  -847.8768  1035.4038 H6            1 RES     
   30452 H6       -1086.8898  -847.6410  1037.6535 H6            1 RES     
   30453 H6       -1085.2881  -849.9489  1038.5890 H6            1 RES     
   30454 H6       -1085.6705  -848.5357  1039.6503 H6            1 RES     
   30455 H6       -1087.9864  -848.5982  1039.1876 H6            1 RES     
   30456 H6       -1087.7774  -850.0261  1038.0399 H6            1 RES     
   30457 H6       -1087.7934  -849.9807  1041.0946 H6            1 RES     
   30458 H6       -1087.5665  -851.4520  1040.0525 H6            1 RES     
   30459 H6       -1089.9744  -849.4668  1039.8045 H6            1 RES     
   30460 H6       -1089.6969  -850.9451  1038.8296 H6            1 RES     
   30461 H6       -1090.0244  -852.3549  1040.8654 H6            1 RES     
   30462 H6       -1091.4350  -851.3573  1040.3576 H6            1 RES     
   30463 H6       -1090.9696  -849.6573  1042.0815 H6            1 RES     
   30464 H6       -1089.5638  -850.6338  1042.6830 H6            1 RES     
   30465 H6       -1091.2458  -851.2907  1042.7825 H6            1 RES     
   30466 H6       -1085.0587  -846.4533  1036.4341 H6            1 RES     
   30467 H6       -1084.1009  -847.2262  1037.7286 H6            1 RES     
   30468 H6       -1083.5800  -845.3267  1038.5120 H6            1 RES     
   30469 H6       -1084.3887  -843.8596  1038.1069 H6            1 RES     
   30470 H6       -1084.6509  -845.3533  1040.8236 H6            1 RES     
   30471 H6       -1086.1511  -843.4008  1040.4807 H6            1 RES     
   30472 H6       -1085.1268  -843.3203  1041.9433 H6            1 RES     
   30473 H6       -1083.6144  -841.6548  1040.9734 H6            1 RES     
   30474 H6       -1084.3666  -841.8248  1039.3763 H6            1 RES     
   30475 H6       -1085.2133  -839.7975  1040.2798 H6            1 RES     
   30476 H6       -1086.5533  -840.9592  1040.3259 H6            1 RES     
   30477 H6       -1086.1742  -841.3396  1042.7748 H6            1 RES     
   30478 H6       -1086.5632  -839.6433  1042.3486 H6            1 RES     
   30479 H6       -1083.7442  -840.7172  1043.0308 H6            1 RES     
   30480 H6       -1084.8220  -839.7301  1044.0680 H6            1 RES     
   30481 H6       -1084.7204  -837.8449  1042.4051 H6            1 RES     
   30482 H6       -1083.0980  -838.3007  1043.0505 H6            1 RES     
   30483 H6       -1083.5627  -838.8094  1041.3997 H6            1 RES     
   30484 H6       -1082.3353  -845.4009  1040.6721 H6            1 RES     
   30485 H6       -1082.6928  -844.0186  1041.7454 H6            1 RES     
   30486 H6       -1082.2253  -842.5240  1039.6026 H6            1 RES     
   30487 H6       -1081.7270  -844.0114  1038.7844 H6            1 RES     
   30488 H6       -1079.8806  -842.6420  1039.6235 H6            1 RES     
   30489 H6       -1080.4853  -842.7307  1041.3132 H6            1 RES     
   30490 H6       -1079.4923  -845.1508  1039.6441 H6            1 RES     
   30491 H6       -1080.0768  -845.1859  1041.3484 H6            1 RES     
   30492 H6       -1078.1988  -843.6669  1042.0408 H6            1 RES     
   30493 H6       -1077.6648  -845.2400  1041.3492 H6            1 RES     
   30494 H6       -1077.7039  -842.5605  1039.8160 H6            1 RES     
   30495 H6       -1077.1732  -844.1449  1039.1475 H6            1 RES     
   30496 H6       -1075.3003  -842.6417  1039.7959 H6            1 RES     
   30497 H6       -1075.8851  -842.5860  1041.4960 H6            1 RES     
   30498 H6       -1075.4238  -845.0547  1041.7132 H6            1 RES     
   30499 H6       -1073.9658  -844.1487  1041.1915 H6            1 RES     
   30500 H6       -1074.9006  -845.0983  1039.9774 H6            1 RES     
   30501 H4          14.2766    11.2381    10.8199 H4            1 RES     
   30502 H4       -1091.8344  -851.7668  1033.9614 H4            1 RES     
@<TRIPOS>BOND
       1        1        2 1
       2        1        8 1
       3        1       40 1
       4        2        3 1
       5        2        6 1
       6        3        4 1
       7        3        7 1
       8        4        5 1
       9        5        6 1
      10        5       16 1
      11        6       12 1
      12        7        8 1
      13        7       11 1
      14        8        9 1
      15        9       10 1
      16        9       13 1
      17       10       11 1
      18       10    30501 1
      19       14       15 1
      20       14       22 1
      21       15       16 1
      22       15       23 1
      23       16       17 1
      24       17       18 1
      25       17       21 1
      26       18       19 1
      27       19       20 1
      28       20       21 1
      29       21       22 1
      30       22      132 1
      31       24       25 1
      32       24       57 1
      33       24       58 1
      34       24       59 1
      35       25       26 1
      36       25       60 1
      37       25       61 1
      38       26       27 1
      39       26       62 1
      40       26       63 1
      41       27       28 1
      42       27       64 1
      43       27       65 1
      44       28       29 1
      45       28       66 1
      46       28       67 1
      47       29       30 1
      48       29       68 1
      49       29       69 1
      50       30       31 1
      51       30       70 1
      52       30       71 1
      53       31       32 1
      54       31       72 1
      55       31       73 1
      56       32       33 1
      57       32       39 1
      58       32       74 1
      59       33       34 1
      60       33       75 1
      61       33       76 1
      62       34       35 1
      63       34       77 1
      64       34       78 1
      65       35       36 1
      66       35       79 1
      67       35       80 1
      68       36       37 1
      69       36       81 1
      70       36       82 1
      71       37       38 1
      72       37       83 1
      73       37       84 1
      74       38       85 1
      75       38       86 1
      76       38       87 1
      77       39       40 1
      78       39       88 1
      79       39       89 1
      80       40       41 1
      81       41       42 1
      82       41       90 1
      83       41       91 1
      84       42       43 1
      85       42       49 1
      86       42       92 1
      87       43       44 1
      88       43       93 1
      89       43       94 1
      90       44       45 1
      91       44       95 1
      92       44       96 1
      93       45       46 1
      94       45       97 1
      95       45       98 1
      96       46       47 1
      97       46       99 1
      98       46      100 1
      99       47       48 1
     100       47      101 1
     101       47      102 1
     102       48      103 1
     103       48      104 1
     104       48      105 1
     105       49       50 1
     106       49      106 1
     107       49      107 1
     108       50       51 1
     109       50      108 1
     110       50      109 1
     111       51       52 1
     112       51      110 1
     113       51      111 1
     114       52       53 1
     115       52      112 1
     116       52      113 1
     117       53       54 1
     118       53      114 1
     119       53      115 1
     120       54       55 1
     121       54      116 1
     122       54      117 1
     123       55       56 1
     124       55      118 1
     125       55      119 1
     126       56      120 1
     127       56      121 1
     128       56      122 1
     129      123      124 1
     130      123      130 1
     131      123      162 1
     132      124      125 1
     133      124      128 1
     134      125      126 1
     135      125      129 1
     136      126      127 1
     137      127      128 1
     138      127      138 1
     139      128      134 1
     140      129      130 1
     141      129      133 1
     142      130      131 1
     143      131      132 1
     144      131      135 1
     145      132      133 1
     146      136      137 1
     147      136      144 1
     148      137      138 1
     149      137      145 1
     150      138      139 1
     151      139      140 1
     152      139      143 1
     153      140      141 1
     154      141      142 1
     155      142      143 1
     156      143      144 1
     157      144      254 1
     158      146      147 1
     159      146      179 1
     160      146      180 1
     161      146      181 1
     162      147      148 1
     163      147      182 1
     164      147      183 1
     165      148      149 1
     166      148      184 1
     167      148      185 1
     168      149      150 1
     169      149      186 1
     170      149      187 1
     171      150      151 1
     172      150      188 1
     173      150      189 1
     174      151      152 1
     175      151      190 1
     176      151      191 1
     177      152      153 1
     178      152      192 1
     179      152      193 1
     180      153      154 1
     181      153      194 1
     182      153      195 1
     183      154      155 1
     184      154      161 1
     185      154      196 1
     186      155      156 1
     187      155      197 1
     188      155      198 1
     189      156      157 1
     190      156      199 1
     191      156      200 1
     192      157      158 1
     193      157      201 1
     194      157      202 1
     195      158      159 1
     196      158      203 1
     197      158      204 1
     198      159      160 1
     199      159      205 1
     200      159      206 1
     201      160      207 1
     202      160      208 1
     203      160      209 1
     204      161      162 1
     205      161      210 1
     206      161      211 1
     207      162      163 1
     208      163      164 1
     209      163      212 1
     210      163      213 1
     211      164      165 1
     212      164      171 1
     213      164      214 1
     214      165      166 1
     215      165      215 1
     216      165      216 1
     217      166      167 1
     218      166      217 1
     219      166      218 1
     220      167      168 1
     221      167      219 1
     222      167      220 1
     223      168      169 1
     224      168      221 1
     225      168      222 1
     226      169      170 1
     227      169      223 1
     228      169      224 1
     229      170      225 1
     230      170      226 1
     231      170      227 1
     232      171      172 1
     233      171      228 1
     234      171      229 1
     235      172      173 1
     236      172      230 1
     237      172      231 1
     238      173      174 1
     239      173      232 1
     240      173      233 1
     241      174      175 1
     242      174      234 1
     243      174      235 1
     244      175      176 1
     245      175      236 1
     246      175      237 1
     247      176      177 1
     248      176      238 1
     249      176      239 1
     250      177      178 1
     251      177      240 1
     252      177      241 1
     253      178      242 1
     254      178      243 1
     255      178      244 1
     256      245      246 1
     257      245      252 1
     258      245      284 1
     259      246      247 1
     260      246      250 1
     261      247      248 1
     262      247      251 1
     263      248      249 1
     264      249      250 1
     265      249      260 1
     266      250      256 1
     267      251      252 1
     268      251      255 1
     269      252      253 1
     270      253      254 1
     271      253      257 1
     272      254      255 1
     273      258      259 1
     274      258      266 1
     275      259      260 1
     276      259      267 1
     277      260      261 1
     278      261      262 1
     279      261      265 1
     280      262      263 1
     281      263      264 1
     282      264      265 1
     283      265      266 1
     284      266      376 1
     285      268      269 1
     286      268      301 1
     287      268      302 1
     288      268      303 1
     289      269      270 1
     290      269      304 1
     291      269      305 1
     292      270      271 1
     293      270      306 1
     294      270      307 1
     295      271      272 1
     296      271      308 1
     297      271      309 1
     298      272      273 1
     299      272      310 1
     300      272      311 1
     301      273      274 1
     302      273      312 1
     303      273      313 1
     304      274      275 1
     305      274      314 1
     306      274      315 1
     307      275      276 1
     308      275      316 1
     309      275      317 1
     310      276      277 1
     311      276      283 1
     312      276      318 1
     313      277      278 1
     314      277      319 1
     315      277      320 1
     316      278      279 1
     317      278      321 1
     318      278      322 1
     319      279      280 1
     320      279      323 1
     321      279      324 1
     322      280      281 1
     323      280      325 1
     324      280      326 1
     325      281      282 1
     326      281      327 1
     327      281      328 1
     328      282      329 1
     329      282      330 1
     330      282      331 1
     331      283      284 1
     332      283      332 1
     333      283      333 1
     334      284      285 1
     335      285      286 1
     336      285      334 1
     337      285      335 1
     338      286      287 1
     339      286      293 1
     340      286      336 1
     341      287      288 1
     342      287      337 1
     343      287      338 1
     344      288      289 1
     345      288      339 1
     346      288      340 1
     347      289      290 1
     348      289      341 1
     349      289      342 1
     350      290      291 1
     351      290      343 1
     352      290      344 1
     353      291      292 1
     354      291      345 1
     355      291      346 1
     356      292      347 1
     357      292      348 1
     358      292      349 1
     359      293      294 1
     360      293      350 1
     361      293      351 1
     362      294      295 1
     363      294      352 1
     364      294      353 1
     365      295      296 1
     366      295      354 1
     367      295      355 1
     368      296      297 1
     369      296      356 1
     370      296      357 1
     371      297      298 1
     372      297      358 1
     373      297      359 1
     374      298      299 1
     375      298      360 1
     376      298      361 1
     377      299      300 1
     378      299      362 1
     379      299      363 1
     380      300      364 1
     381      300      365 1
     382      300      366 1
     383      367      368 1
     384      367      374 1
     385      367      406 1
     386      368      369 1
     387      368      372 1
     388      369      370 1
     389      369      373 1
     390      370      371 1
     391      371      372 1
     392      371      382 1
     393      372      378 1
     394      373      374 1
     395      373      377 1
     396      374      375 1
     397      375      376 1
     398      375      379 1
     399      376      377 1
     400      380      381 1
     401      380      388 1
     402      381      382 1
     403      381      389 1
     404      382      383 1
     405      383      384 1
     406      383      387 1
     407      384      385 1
     408      385      386 1
     409      386      387 1
     410      387      388 1
     411      388      498 1
     412      390      391 1
     413      390      423 1
     414      390      424 1
     415      390      425 1
     416      391      392 1
     417      391      426 1
     418      391      427 1
     419      392      393 1
     420      392      428 1
     421      392      429 1
     422      393      394 1
     423      393      430 1
     424      393      431 1
     425      394      395 1
     426      394      432 1
     427      394      433 1
     428      395      396 1
     429      395      434 1
     430      395      435 1
     431      396      397 1
     432      396      436 1
     433      396      437 1
     434      397      398 1
     435      397      438 1
     436      397      439 1
     437      398      399 1
     438      398      405 1
     439      398      440 1
     440      399      400 1
     441      399      441 1
     442      399      442 1
     443      400      401 1
     444      400      443 1
     445      400      444 1
     446      401      402 1
     447      401      445 1
     448      401      446 1
     449      402      403 1
     450      402      447 1
     451      402      448 1
     452      403      404 1
     453      403      449 1
     454      403      450 1
     455      404      451 1
     456      404      452 1
     457      404      453 1
     458      405      406 1
     459      405      454 1
     460      405      455 1
     461      406      407 1
     462      407      408 1
     463      407      456 1
     464      407      457 1
     465      408      409 1
     466      408      415 1
     467      408      458 1
     468      409      410 1
     469      409      459 1
     470      409      460 1
     471      410      411 1
     472      410      461 1
     473      410      462 1
     474      411      412 1
     475      411      463 1
     476      411      464 1
     477      412      413 1
     478      412      465 1
     479      412      466 1
     480      413      414 1
     481      413      467 1
     482      413      468 1
     483      414      469 1
     484      414      470 1
     485      414      471 1
     486      415      416 1
     487      415      472 1
     488      415      473 1
     489      416      417 1
     490      416      474 1
     491      416      475 1
     492      417      418 1
     493      417      476 1
     494      417      477 1
     495      418      419 1
     496      418      478 1
     497      418      479 1
     498      419      420 1
     499      419      480 1
     500      419      481 1
     501      420      421 1
     502      420      482 1
     503      420      483 1
     504      421      422 1
     505      421      484 1
     506      421      485 1
     507      422      486 1
     508      422      487 1
     509      422      488 1
     510      489      490 1
     511      489      496 1
     512      489      528 1
     513      490      491 1
     514      490      494 1
     515      491      492 1
     516      491      495 1
     517      492      493 1
     518      493      494 1
     519      493      504 1
     520      494      500 1
     521      495      496 1
     522      495      499 1
     523      496      497 1
     524      497      498 1
     525      497      501 1
     526      498      499 1
     527      502      503 1
     528      502      510 1
     529      503      504 1
     530      503      511 1
     531      504      505 1
     532      505      506 1
     533      505      509 1
     534      506      507 1
     535      507      508 1
     536      508      509 1
     537      509      510 1
     538      510      620 1
     539      512      513 1
     540      512      545 1
     541      512      546 1
     542      512      547 1
     543      513      514 1
     544      513      548 1
     545      513      549 1
     546      514      515 1
     547      514      550 1
     548      514      551 1
     549      515      516 1
     550      515      552 1
     551      515      553 1
     552      516      517 1
     553      516      554 1
     554      516      555 1
     555      517      518 1
     556      517      556 1
     557      517      557 1
     558      518      519 1
     559      518      558 1
     560      518      559 1
     561      519      520 1
     562      519      560 1
     563      519      561 1
     564      520      521 1
     565      520      527 1
     566      520      562 1
     567      521      522 1
     568      521      563 1
     569      521      564 1
     570      522      523 1
     571      522      565 1
     572      522      566 1
     573      523      524 1
     574      523      567 1
     575      523      568 1
     576      524      525 1
     577      524      569 1
     578      524      570 1
     579      525      526 1
     580      525      571 1
     581      525      572 1
     582      526      573 1
     583      526      574 1
     584      526      575 1
     585      527      528 1
     586      527      576 1
     587      527      577 1
     588      528      529 1
     589      529      530 1
     590      529      578 1
     591      529      579 1
     592      530      531 1
     593      530      537 1
     594      530      580 1
     595      531      532 1
     596      531      581 1
     597      531      582 1
     598      532      533 1
     599      532      583 1
     600      532      584 1
     601      533      534 1
     602      533      585 1
     603      533      586 1
     604      534      535 1
     605      534      587 1
     606      534      588 1
     607      535      536 1
     608      535      589 1
     609      535      590 1
     610      536      591 1
     611      536      592 1
     612      536      593 1
     613      537      538 1
     614      537      594 1
     615      537      595 1
     616      538      539 1
     617      538      596 1
     618      538      597 1
     619      539      540 1
     620      539      598 1
     621      539      599 1
     622      540      541 1
     623      540      600 1
     624      540      601 1
     625      541      542 1
     626      541      602 1
     627      541      603 1
     628      542      543 1
     629      542      604 1
     630      542      605 1
     631      543      544 1
     632      543      606 1
     633      543      607 1
     634      544      608 1
     635      544      609 1
     636      544      610 1
     637      611      612 1
     638      611      618 1
     639      611      650 1
     640      612      613 1
     641      612      616 1
     642      613      614 1
     643      613      617 1
     644      614      615 1
     645      615      616 1
     646      615      626 1
     647      616      622 1
     648      617      618 1
     649      617      621 1
     650      618      619 1
     651      619      620 1
     652      619      623 1
     653      620      621 1
     654      624      625 1
     655      624      632 1
     656      625      626 1
     657      625      633 1
     658      626      627 1
     659      627      628 1
     660      627      631 1
     661      628      629 1
     662      629      630 1
     663      630      631 1
     664      631      632 1
     665      632      742 1
     666      634      635 1
     667      634      667 1
     668      634      668 1
     669      634      669 1
     670      635      636 1
     671      635      670 1
     672      635      671 1
     673      636      637 1
     674      636      672 1
     675      636      673 1
     676      637      638 1
     677      637      674 1
     678      637      675 1
     679      638      639 1
     680      638      676 1
     681      638      677 1
     682      639      640 1
     683      639      678 1
     684      639      679 1
     685      640      641 1
     686      640      680 1
     687      640      681 1
     688      641      642 1
     689      641      682 1
     690      641      683 1
     691      642      643 1
     692      642      649 1
     693      642      684 1
     694      643      644 1
     695      643      685 1
     696      643      686 1
     697      644      645 1
     698      644      687 1
     699      644      688 1
     700      645      646 1
     701      645      689 1
     702      645      690 1
     703      646      647 1
     704      646      691 1
     705      646      692 1
     706      647      648 1
     707      647      693 1
     708      647      694 1
     709      648      695 1
     710      648      696 1
     711      648      697 1
     712      649      650 1
     713      649      698 1
     714      649      699 1
     715      650      651 1
     716      651      652 1
     717      651      700 1
     718      651      701 1
     719      652      653 1
     720      652      659 1
     721      652      702 1
     722      653      654 1
     723      653      703 1
     724      653      704 1
     725      654      655 1
     726      654      705 1
     727      654      706 1
     728      655      656 1
     729      655      707 1
     730      655      708 1
     731      656      657 1
     732      656      709 1
     733      656      710 1
     734      657      658 1
     735      657      711 1
     736      657      712 1
     737      658      713 1
     738      658      714 1
     739      658      715 1
     740      659      660 1
     741      659      716 1
     742      659      717 1
     743      660      661 1
     744      660      718 1
     745      660      719 1
     746      661      662 1
     747      661      720 1
     748      661      721 1
     749      662      663 1
     750      662      722 1
     751      662      723 1
     752      663      664 1
     753      663      724 1
     754      663      725 1
     755      664      665 1
     756      664      726 1
     757      664      727 1
     758      665      666 1
     759      665      728 1
     760      665      729 1
     761      666      730 1
     762      666      731 1
     763      666      732 1
     764      733      734 1
     765      733      740 1
     766      733      772 1
     767      734      735 1
     768      734      738 1
     769      735      736 1
     770      735      739 1
     771      736      737 1
     772      737      738 1
     773      737      748 1
     774      738      744 1
     775      739      740 1
     776      739      743 1
     777      740      741 1
     778      741      742 1
     779      741      745 1
     780      742      743 1
     781      746      747 1
     782      746      754 1
     783      747      748 1
     784      747      755 1
     785      748      749 1
     786      749      750 1
     787      749      753 1
     788      750      751 1
     789      751      752 1
     790      752      753 1
     791      753      754 1
     792      754      864 1
     793      756      757 1
     794      756      789 1
     795      756      790 1
     796      756      791 1
     797      757      758 1
     798      757      792 1
     799      757      793 1
     800      758      759 1
     801      758      794 1
     802      758      795 1
     803      759      760 1
     804      759      796 1
     805      759      797 1
     806      760      761 1
     807      760      798 1
     808      760      799 1
     809      761      762 1
     810      761      800 1
     811      761      801 1
     812      762      763 1
     813      762      802 1
     814      762      803 1
     815      763      764 1
     816      763      804 1
     817      763      805 1
     818      764      765 1
     819      764      771 1
     820      764      806 1
     821      765      766 1
     822      765      807 1
     823      765      808 1
     824      766      767 1
     825      766      809 1
     826      766      810 1
     827      767      768 1
     828      767      811 1
     829      767      812 1
     830      768      769 1
     831      768      813 1
     832      768      814 1
     833      769      770 1
     834      769      815 1
     835      769      816 1
     836      770      817 1
     837      770      818 1
     838      770      819 1
     839      771      772 1
     840      771      820 1
     841      771      821 1
     842      772      773 1
     843      773      774 1
     844      773      822 1
     845      773      823 1
     846      774      775 1
     847      774      781 1
     848      774      824 1
     849      775      776 1
     850      775      825 1
     851      775      826 1
     852      776      777 1
     853      776      827 1
     854      776      828 1
     855      777      778 1
     856      777      829 1
     857      777      830 1
     858      778      779 1
     859      778      831 1
     860      778      832 1
     861      779      780 1
     862      779      833 1
     863      779      834 1
     864      780      835 1
     865      780      836 1
     866      780      837 1
     867      781      782 1
     868      781      838 1
     869      781      839 1
     870      782      783 1
     871      782      840 1
     872      782      841 1
     873      783      784 1
     874      783      842 1
     875      783      843 1
     876      784      785 1
     877      784      844 1
     878      784      845 1
     879      785      786 1
     880      785      846 1
     881      785      847 1
     882      786      787 1
     883      786      848 1
     884      786      849 1
     885      787      788 1
     886      787      850 1
     887      787      851 1
     888      788      852 1
     889      788      853 1
     890      788      854 1
     891      855      856 1
     892      855      862 1
     893      855      894 1
     894      856      857 1
     895      856      860 1
     896      857      858 1
     897      857      861 1
     898      858      859 1
     899      859      860 1
     900      859      870 1
     901      860      866 1
     902      861      862 1
     903      861      865 1
     904      862      863 1
     905      863      864 1
     906      863      867 1
     907      864      865 1
     908      868      869 1
     909      868      876 1
     910      869      870 1
     911      869      877 1
     912      870      871 1
     913      871      872 1
     914      871      875 1
     915      872      873 1
     916      873      874 1
     917      874      875 1
     918      875      876 1
     919      876      986 1
     920      878      879 1
     921      878      911 1
     922      878      912 1
     923      878      913 1
     924      879      880 1
     925      879      914 1
     926      879      915 1
     927      880      881 1
     928      880      916 1
     929      880      917 1
     930      881      882 1
     931      881      918 1
     932      881      919 1
     933      882      883 1
     934      882      920 1
     935      882      921 1
     936      883      884 1
     937      883      922 1
     938      883      923 1
     939      884      885 1
     940      884      924 1
     941      884      925 1
     942      885      886 1
     943      885      926 1
     944      885      927 1
     945      886      887 1
     946      886      893 1
     947      886      928 1
     948      887      888 1
     949      887      929 1
     950      887      930 1
     951      888      889 1
     952      888      931 1
     953      888      932 1
     954      889      890 1
     955      889      933 1
     956      889      934 1
     957      890      891 1
     958      890      935 1
     959      890      936 1
     960      891      892 1
     961      891      937 1
     962      891      938 1
     963      892      939 1
     964      892      940 1
     965      892      941 1
     966      893      894 1
     967      893      942 1
     968      893      943 1
     969      894      895 1
     970      895      896 1
     971      895      944 1
     972      895      945 1
     973      896      897 1
     974      896      903 1
     975      896      946 1
     976      897      898 1
     977      897      947 1
     978      897      948 1
     979      898      899 1
     980      898      949 1
     981      898      950 1
     982      899      900 1
     983      899      951 1
     984      899      952 1
     985      900      901 1
     986      900      953 1
     987      900      954 1
     988      901      902 1
     989      901      955 1
     990      901      956 1
     991      902      957 1
     992      902      958 1
     993      902      959 1
     994      903      904 1
     995      903      960 1
     996      903      961 1
     997      904      905 1
     998      904      962 1
     999      904      963 1
    1000      905      906 1
    1001      905      964 1
    1002      905      965 1
    1003      906      907 1
    1004      906      966 1
    1005      906      967 1
    1006      907      908 1
    1007      907      968 1
    1008      907      969 1
    1009      908      909 1
    1010      908      970 1
    1011      908      971 1
    1012      909      910 1
    1013      909      972 1
    1014      909      973 1
    1015      910      974 1
    1016      910      975 1
    1017      910      976 1
    1018      977      978 1
    1019      977      984 1
    1020      977     1016 1
    1021      978      979 1
    1022      978      982 1
    1023      979      980 1
    1024      979      983 1
    1025      980      981 1
    1026      981      982 1
    1027      981      992 1
    1028      982      988 1
    1029      983      984 1
    1030      983      987 1
    1031      984      985 1
    1032      985      986 1
    1033      985      989 1
    1034      986      987 1
    1035      990      991 1
    1036      990      998 1
    1037      991      992 1
    1038      991      999 1
    1039      992      993 1
    1040      993      994 1
    1041      993      997 1
    1042      994      995 1
    1043      995      996 1
    1044      996      997 1
    1045      997      998 1
    1046      998     1108 1
    1047     1000     1001 1
    1048     1000     1033 1
    1049     1000     1034 1
    1050     1000     1035 1
    1051     1001     1002 1
    1052     1001     1036 1
    1053     1001     1037 1
    1054     1002     1003 1
    1055     1002     1038 1
    1056     1002     1039 1
    1057     1003     1004 1
    1058     1003     1040 1
    1059     1003     1041 1
    1060     1004     1005 1
    1061     1004     1042 1
    1062     1004     1043 1
    1063     1005     1006 1
    1064     1005     1044 1
    1065     1005     1045 1
    1066     1006     1007 1
    1067     1006     1046 1
    1068     1006     1047 1
    1069     1007     1008 1
    1070     1007     1048 1
    1071     1007     1049 1
    1072     1008     1009 1
    1073     1008     1015 1
    1074     1008     1050 1
    1075     1009     1010 1
    1076     1009     1051 1
    1077     1009     1052 1
    1078     1010     1011 1
    1079     1010     1053 1
    1080     1010     1054 1
    1081     1011     1012 1
    1082     1011     1055 1
    1083     1011     1056 1
    1084     1012     1013 1
    1085     1012     1057 1
    1086     1012     1058 1
    1087     1013     1014 1
    1088     1013     1059 1
    1089     1013     1060 1
    1090     1014     1061 1
    1091     1014     1062 1
    1092     1014     1063 1
    1093     1015     1016 1
    1094     1015     1064 1
    1095     1015     1065 1
    1096     1016     1017 1
    1097     1017     1018 1
    1098     1017     1066 1
    1099     1017     1067 1
    1100     1018     1019 1
    1101     1018     1025 1
    1102     1018     1068 1
    1103     1019     1020 1
    1104     1019     1069 1
    1105     1019     1070 1
    1106     1020     1021 1
    1107     1020     1071 1
    1108     1020     1072 1
    1109     1021     1022 1
    1110     1021     1073 1
    1111     1021     1074 1
    1112     1022     1023 1
    1113     1022     1075 1
    1114     1022     1076 1
    1115     1023     1024 1
    1116     1023     1077 1
    1117     1023     1078 1
    1118     1024     1079 1
    1119     1024     1080 1
    1120     1024     1081 1
    1121     1025     1026 1
    1122     1025     1082 1
    1123     1025     1083 1
    1124     1026     1027 1
    1125     1026     1084 1
    1126     1026     1085 1
    1127     1027     1028 1
    1128     1027     1086 1
    1129     1027     1087 1
    1130     1028     1029 1
    1131     1028     1088 1
    1132     1028     1089 1
    1133     1029     1030 1
    1134     1029     1090 1
    1135     1029     1091 1
    1136     1030     1031 1
    1137     1030     1092 1
    1138     1030     1093 1
    1139     1031     1032 1
    1140     1031     1094 1
    1141     1031     1095 1
    1142     1032     1096 1
    1143     1032     1097 1
    1144     1032     1098 1
    1145     1099     1100 1
    1146     1099     1106 1
    1147     1099     1138 1
    1148     1100     1101 1
    1149     1100     1104 1
    1150     1101     1102 1
    1151     1101     1105 1
    1152     1102     1103 1
    1153     1103     1104 1
    1154     1103     1114 1
    1155     1104     1110 1
    1156     1105     1106 1
    1157     1105     1109 1
    1158     1106     1107 1
    1159     1107     1108 1
    1160     1107     1111 1
    1161     1108     1109 1
    1162     1112     1113 1
    1163     1112     1120 1
    1164     1113     1114 1
    1165     1113     1121 1
    1166     1114     1115 1
    1167     1115     1116 1
    1168     1115     1119 1
    1169     1116     1117 1
    1170     1117     1118 1
    1171     1118     1119 1
    1172     1119     1120 1
    1173     1120     1230 1
    1174     1122     1123 1
    1175     1122     1155 1
    1176     1122     1156 1
    1177     1122     1157 1
    1178     1123     1124 1
    1179     1123     1158 1
    1180     1123     1159 1
    1181     1124     1125 1
    1182     1124     1160 1
    1183     1124     1161 1
    1184     1125     1126 1
    1185     1125     1162 1
    1186     1125     1163 1
    1187     1126     1127 1
    1188     1126     1164 1
    1189     1126     1165 1
    1190     1127     1128 1
    1191     1127     1166 1
    1192     1127     1167 1
    1193     1128     1129 1
    1194     1128     1168 1
    1195     1128     1169 1
    1196     1129     1130 1
    1197     1129     1170 1
    1198     1129     1171 1
    1199     1130     1131 1
    1200     1130     1137 1
    1201     1130     1172 1
    1202     1131     1132 1
    1203     1131     1173 1
    1204     1131     1174 1
    1205     1132     1133 1
    1206     1132     1175 1
    1207     1132     1176 1
    1208     1133     1134 1
    1209     1133     1177 1
    1210     1133     1178 1
    1211     1134     1135 1
    1212     1134     1179 1
    1213     1134     1180 1
    1214     1135     1136 1
    1215     1135     1181 1
    1216     1135     1182 1
    1217     1136     1183 1
    1218     1136     1184 1
    1219     1136     1185 1
    1220     1137     1138 1
    1221     1137     1186 1
    1222     1137     1187 1
    1223     1138     1139 1
    1224     1139     1140 1
    1225     1139     1188 1
    1226     1139     1189 1
    1227     1140     1141 1
    1228     1140     1147 1
    1229     1140     1190 1
    1230     1141     1142 1
    1231     1141     1191 1
    1232     1141     1192 1
    1233     1142     1143 1
    1234     1142     1193 1
    1235     1142     1194 1
    1236     1143     1144 1
    1237     1143     1195 1
    1238     1143     1196 1
    1239     1144     1145 1
    1240     1144     1197 1
    1241     1144     1198 1
    1242     1145     1146 1
    1243     1145     1199 1
    1244     1145     1200 1
    1245     1146     1201 1
    1246     1146     1202 1
    1247     1146     1203 1
    1248     1147     1148 1
    1249     1147     1204 1
    1250     1147     1205 1
    1251     1148     1149 1
    1252     1148     1206 1
    1253     1148     1207 1
    1254     1149     1150 1
    1255     1149     1208 1
    1256     1149     1209 1
    1257     1150     1151 1
    1258     1150     1210 1
    1259     1150     1211 1
    1260     1151     1152 1
    1261     1151     1212 1
    1262     1151     1213 1
    1263     1152     1153 1
    1264     1152     1214 1
    1265     1152     1215 1
    1266     1153     1154 1
    1267     1153     1216 1
    1268     1153     1217 1
    1269     1154     1218 1
    1270     1154     1219 1
    1271     1154     1220 1
    1272     1221     1222 1
    1273     1221     1228 1
    1274     1221     1260 1
    1275     1222     1223 1
    1276     1222     1226 1
    1277     1223     1224 1
    1278     1223     1227 1
    1279     1224     1225 1
    1280     1225     1226 1
    1281     1225     1236 1
    1282     1226     1232 1
    1283     1227     1228 1
    1284     1227     1231 1
    1285     1228     1229 1
    1286     1229     1230 1
    1287     1229     1233 1
    1288     1230     1231 1
    1289     1234     1235 1
    1290     1234     1242 1
    1291     1235     1236 1
    1292     1235     1243 1
    1293     1236     1237 1
    1294     1237     1238 1
    1295     1237     1241 1
    1296     1238     1239 1
    1297     1239     1240 1
    1298     1240     1241 1
    1299     1241     1242 1
    1300     1242     1352 1
    1301     1244     1245 1
    1302     1244     1277 1
    1303     1244     1278 1
    1304     1244     1279 1
    1305     1245     1246 1
    1306     1245     1280 1
    1307     1245     1281 1
    1308     1246     1247 1
    1309     1246     1282 1
    1310     1246     1283 1
    1311     1247     1248 1
    1312     1247     1284 1
    1313     1247     1285 1
    1314     1248     1249 1
    1315     1248     1286 1
    1316     1248     1287 1
    1317     1249     1250 1
    1318     1249     1288 1
    1319     1249     1289 1
    1320     1250     1251 1
    1321     1250     1290 1
    1322     1250     1291 1
    1323     1251     1252 1
    1324     1251     1292 1
    1325     1251     1293 1
    1326     1252     1253 1
    1327     1252     1259 1
    1328     1252     1294 1
    1329     1253     1254 1
    1330     1253     1295 1
    1331     1253     1296 1
    1332     1254     1255 1
    1333     1254     1297 1
    1334     1254     1298 1
    1335     1255     1256 1
    1336     1255     1299 1
    1337     1255     1300 1
    1338     1256     1257 1
    1339     1256     1301 1
    1340     1256     1302 1
    1341     1257     1258 1
    1342     1257     1303 1
    1343     1257     1304 1
    1344     1258     1305 1
    1345     1258     1306 1
    1346     1258     1307 1
    1347     1259     1260 1
    1348     1259     1308 1
    1349     1259     1309 1
    1350     1260     1261 1
    1351     1261     1262 1
    1352     1261     1310 1
    1353     1261     1311 1
    1354     1262     1263 1
    1355     1262     1269 1
    1356     1262     1312 1
    1357     1263     1264 1
    1358     1263     1313 1
    1359     1263     1314 1
    1360     1264     1265 1
    1361     1264     1315 1
    1362     1264     1316 1
    1363     1265     1266 1
    1364     1265     1317 1
    1365     1265     1318 1
    1366     1266     1267 1
    1367     1266     1319 1
    1368     1266     1320 1
    1369     1267     1268 1
    1370     1267     1321 1
    1371     1267     1322 1
    1372     1268     1323 1
    1373     1268     1324 1
    1374     1268     1325 1
    1375     1269     1270 1
    1376     1269     1326 1
    1377     1269     1327 1
    1378     1270     1271 1
    1379     1270     1328 1
    1380     1270     1329 1
    1381     1271     1272 1
    1382     1271     1330 1
    1383     1271     1331 1
    1384     1272     1273 1
    1385     1272     1332 1
    1386     1272     1333 1
    1387     1273     1274 1
    1388     1273     1334 1
    1389     1273     1335 1
    1390     1274     1275 1
    1391     1274     1336 1
    1392     1274     1337 1
    1393     1275     1276 1
    1394     1275     1338 1
    1395     1275     1339 1
    1396     1276     1340 1
    1397     1276     1341 1
    1398     1276     1342 1
    1399     1343     1344 1
    1400     1343     1350 1
    1401     1343     1382 1
    1402     1344     1345 1
    1403     1344     1348 1
    1404     1345     1346 1
    1405     1345     1349 1
    1406     1346     1347 1
    1407     1347     1348 1
    1408     1347     1358 1
    1409     1348     1354 1
    1410     1349     1350 1
    1411     1349     1353 1
    1412     1350     1351 1
    1413     1351     1352 1
    1414     1351     1355 1
    1415     1352     1353 1
    1416     1356     1357 1
    1417     1356     1364 1
    1418     1357     1358 1
    1419     1357     1365 1
    1420     1358     1359 1
    1421     1359     1360 1
    1422     1359     1363 1
    1423     1360     1361 1
    1424     1361     1362 1
    1425     1362     1363 1
    1426     1363     1364 1
    1427     1364     1474 1
    1428     1366     1367 1
    1429     1366     1399 1
    1430     1366     1400 1
    1431     1366     1401 1
    1432     1367     1368 1
    1433     1367     1402 1
    1434     1367     1403 1
    1435     1368     1369 1
    1436     1368     1404 1
    1437     1368     1405 1
    1438     1369     1370 1
    1439     1369     1406 1
    1440     1369     1407 1
    1441     1370     1371 1
    1442     1370     1408 1
    1443     1370     1409 1
    1444     1371     1372 1
    1445     1371     1410 1
    1446     1371     1411 1
    1447     1372     1373 1
    1448     1372     1412 1
    1449     1372     1413 1
    1450     1373     1374 1
    1451     1373     1414 1
    1452     1373     1415 1
    1453     1374     1375 1
    1454     1374     1381 1
    1455     1374     1416 1
    1456     1375     1376 1
    1457     1375     1417 1
    1458     1375     1418 1
    1459     1376     1377 1
    1460     1376     1419 1
    1461     1376     1420 1
    1462     1377     1378 1
    1463     1377     1421 1
    1464     1377     1422 1
    1465     1378     1379 1
    1466     1378     1423 1
    1467     1378     1424 1
    1468     1379     1380 1
    1469     1379     1425 1
    1470     1379     1426 1
    1471     1380     1427 1
    1472     1380     1428 1
    1473     1380     1429 1
    1474     1381     1382 1
    1475     1381     1430 1
    1476     1381     1431 1
    1477     1382     1383 1
    1478     1383     1384 1
    1479     1383     1432 1
    1480     1383     1433 1
    1481     1384     1385 1
    1482     1384     1391 1
    1483     1384     1434 1
    1484     1385     1386 1
    1485     1385     1435 1
    1486     1385     1436 1
    1487     1386     1387 1
    1488     1386     1437 1
    1489     1386     1438 1
    1490     1387     1388 1
    1491     1387     1439 1
    1492     1387     1440 1
    1493     1388     1389 1
    1494     1388     1441 1
    1495     1388     1442 1
    1496     1389     1390 1
    1497     1389     1443 1
    1498     1389     1444 1
    1499     1390     1445 1
    1500     1390     1446 1
    1501     1390     1447 1
    1502     1391     1392 1
    1503     1391     1448 1
    1504     1391     1449 1
    1505     1392     1393 1
    1506     1392     1450 1
    1507     1392     1451 1
    1508     1393     1394 1
    1509     1393     1452 1
    1510     1393     1453 1
    1511     1394     1395 1
    1512     1394     1454 1
    1513     1394     1455 1
    1514     1395     1396 1
    1515     1395     1456 1
    1516     1395     1457 1
    1517     1396     1397 1
    1518     1396     1458 1
    1519     1396     1459 1
    1520     1397     1398 1
    1521     1397     1460 1
    1522     1397     1461 1
    1523     1398     1462 1
    1524     1398     1463 1
    1525     1398     1464 1
    1526     1465     1466 1
    1527     1465     1472 1
    1528     1465     1504 1
    1529     1466     1467 1
    1530     1466     1470 1
    1531     1467     1468 1
    1532     1467     1471 1
    1533     1468     1469 1
    1534     1469     1470 1
    1535     1469     1480 1
    1536     1470     1476 1
    1537     1471     1472 1
    1538     1471     1475 1
    1539     1472     1473 1
    1540     1473     1474 1
    1541     1473     1477 1
    1542     1474     1475 1
    1543     1478     1479 1
    1544     1478     1486 1
    1545     1479     1480 1
    1546     1479     1487 1
    1547     1480     1481 1
    1548     1481     1482 1
    1549     1481     1485 1
    1550     1482     1483 1
    1551     1483     1484 1
    1552     1484     1485 1
    1553     1485     1486 1
    1554     1486     1596 1
    1555     1488     1489 1
    1556     1488     1521 1
    1557     1488     1522 1
    1558     1488     1523 1
    1559     1489     1490 1
    1560     1489     1524 1
    1561     1489     1525 1
    1562     1490     1491 1
    1563     1490     1526 1
    1564     1490     1527 1
    1565     1491     1492 1
    1566     1491     1528 1
    1567     1491     1529 1
    1568     1492     1493 1
    1569     1492     1530 1
    1570     1492     1531 1
    1571     1493     1494 1
    1572     1493     1532 1
    1573     1493     1533 1
    1574     1494     1495 1
    1575     1494     1534 1
    1576     1494     1535 1
    1577     1495     1496 1
    1578     1495     1536 1
    1579     1495     1537 1
    1580     1496     1497 1
    1581     1496     1503 1
    1582     1496     1538 1
    1583     1497     1498 1
    1584     1497     1539 1
    1585     1497     1540 1
    1586     1498     1499 1
    1587     1498     1541 1
    1588     1498     1542 1
    1589     1499     1500 1
    1590     1499     1543 1
    1591     1499     1544 1
    1592     1500     1501 1
    1593     1500     1545 1
    1594     1500     1546 1
    1595     1501     1502 1
    1596     1501     1547 1
    1597     1501     1548 1
    1598     1502     1549 1
    1599     1502     1550 1
    1600     1502     1551 1
    1601     1503     1504 1
    1602     1503     1552 1
    1603     1503     1553 1
    1604     1504     1505 1
    1605     1505     1506 1
    1606     1505     1554 1
    1607     1505     1555 1
    1608     1506     1507 1
    1609     1506     1513 1
    1610     1506     1556 1
    1611     1507     1508 1
    1612     1507     1557 1
    1613     1507     1558 1
    1614     1508     1509 1
    1615     1508     1559 1
    1616     1508     1560 1
    1617     1509     1510 1
    1618     1509     1561 1
    1619     1509     1562 1
    1620     1510     1511 1
    1621     1510     1563 1
    1622     1510     1564 1
    1623     1511     1512 1
    1624     1511     1565 1
    1625     1511     1566 1
    1626     1512     1567 1
    1627     1512     1568 1
    1628     1512     1569 1
    1629     1513     1514 1
    1630     1513     1570 1
    1631     1513     1571 1
    1632     1514     1515 1
    1633     1514     1572 1
    1634     1514     1573 1
    1635     1515     1516 1
    1636     1515     1574 1
    1637     1515     1575 1
    1638     1516     1517 1
    1639     1516     1576 1
    1640     1516     1577 1
    1641     1517     1518 1
    1642     1517     1578 1
    1643     1517     1579 1
    1644     1518     1519 1
    1645     1518     1580 1
    1646     1518     1581 1
    1647     1519     1520 1
    1648     1519     1582 1
    1649     1519     1583 1
    1650     1520     1584 1
    1651     1520     1585 1
    1652     1520     1586 1
    1653     1587     1588 1
    1654     1587     1594 1
    1655     1587     1626 1
    1656     1588     1589 1
    1657     1588     1592 1
    1658     1589     1590 1
    1659     1589     1593 1
    1660     1590     1591 1
    1661     1591     1592 1
    1662     1591     1602 1
    1663     1592     1598 1
    1664     1593     1594 1
    1665     1593     1597 1
    1666     1594     1595 1
    1667     1595     1596 1
    1668     1595     1599 1
    1669     1596     1597 1
    1670     1600     1601 1
    1671     1600     1608 1
    1672     1601     1602 1
    1673     1601     1609 1
    1674     1602     1603 1
    1675     1603     1604 1
    1676     1603     1607 1
    1677     1604     1605 1
    1678     1605     1606 1
    1679     1606     1607 1
    1680     1607     1608 1
    1681     1608     1718 1
    1682     1610     1611 1
    1683     1610     1643 1
    1684     1610     1644 1
    1685     1610     1645 1
    1686     1611     1612 1
    1687     1611     1646 1
    1688     1611     1647 1
    1689     1612     1613 1
    1690     1612     1648 1
    1691     1612     1649 1
    1692     1613     1614 1
    1693     1613     1650 1
    1694     1613     1651 1
    1695     1614     1615 1
    1696     1614     1652 1
    1697     1614     1653 1
    1698     1615     1616 1
    1699     1615     1654 1
    1700     1615     1655 1
    1701     1616     1617 1
    1702     1616     1656 1
    1703     1616     1657 1
    1704     1617     1618 1
    1705     1617     1658 1
    1706     1617     1659 1
    1707     1618     1619 1
    1708     1618     1625 1
    1709     1618     1660 1
    1710     1619     1620 1
    1711     1619     1661 1
    1712     1619     1662 1
    1713     1620     1621 1
    1714     1620     1663 1
    1715     1620     1664 1
    1716     1621     1622 1
    1717     1621     1665 1
    1718     1621     1666 1
    1719     1622     1623 1
    1720     1622     1667 1
    1721     1622     1668 1
    1722     1623     1624 1
    1723     1623     1669 1
    1724     1623     1670 1
    1725     1624     1671 1
    1726     1624     1672 1
    1727     1624     1673 1
    1728     1625     1626 1
    1729     1625     1674 1
    1730     1625     1675 1
    1731     1626     1627 1
    1732     1627     1628 1
    1733     1627     1676 1
    1734     1627     1677 1
    1735     1628     1629 1
    1736     1628     1635 1
    1737     1628     1678 1
    1738     1629     1630 1
    1739     1629     1679 1
    1740     1629     1680 1
    1741     1630     1631 1
    1742     1630     1681 1
    1743     1630     1682 1
    1744     1631     1632 1
    1745     1631     1683 1
    1746     1631     1684 1
    1747     1632     1633 1
    1748     1632     1685 1
    1749     1632     1686 1
    1750     1633     1634 1
    1751     1633     1687 1
    1752     1633     1688 1
    1753     1634     1689 1
    1754     1634     1690 1
    1755     1634     1691 1
    1756     1635     1636 1
    1757     1635     1692 1
    1758     1635     1693 1
    1759     1636     1637 1
    1760     1636     1694 1
    1761     1636     1695 1
    1762     1637     1638 1
    1763     1637     1696 1
    1764     1637     1697 1
    1765     1638     1639 1
    1766     1638     1698 1
    1767     1638     1699 1
    1768     1639     1640 1
    1769     1639     1700 1
    1770     1639     1701 1
    1771     1640     1641 1
    1772     1640     1702 1
    1773     1640     1703 1
    1774     1641     1642 1
    1775     1641     1704 1
    1776     1641     1705 1
    1777     1642     1706 1
    1778     1642     1707 1
    1779     1642     1708 1
    1780     1709     1710 1
    1781     1709     1716 1
    1782     1709     1748 1
    1783     1710     1711 1
    1784     1710     1714 1
    1785     1711     1712 1
    1786     1711     1715 1
    1787     1712     1713 1
    1788     1713     1714 1
    1789     1713     1724 1
    1790     1714     1720 1
    1791     1715     1716 1
    1792     1715     1719 1
    1793     1716     1717 1
    1794     1717     1718 1
    1795     1717     1721 1
    1796     1718     1719 1
    1797     1722     1723 1
    1798     1722     1730 1
    1799     1723     1724 1
    1800     1723     1731 1
    1801     1724     1725 1
    1802     1725     1726 1
    1803     1725     1729 1
    1804     1726     1727 1
    1805     1727     1728 1
    1806     1728     1729 1
    1807     1729     1730 1
    1808     1730     1840 1
    1809     1732     1733 1
    1810     1732     1765 1
    1811     1732     1766 1
    1812     1732     1767 1
    1813     1733     1734 1
    1814     1733     1768 1
    1815     1733     1769 1
    1816     1734     1735 1
    1817     1734     1770 1
    1818     1734     1771 1
    1819     1735     1736 1
    1820     1735     1772 1
    1821     1735     1773 1
    1822     1736     1737 1
    1823     1736     1774 1
    1824     1736     1775 1
    1825     1737     1738 1
    1826     1737     1776 1
    1827     1737     1777 1
    1828     1738     1739 1
    1829     1738     1778 1
    1830     1738     1779 1
    1831     1739     1740 1
    1832     1739     1780 1
    1833     1739     1781 1
    1834     1740     1741 1
    1835     1740     1747 1
    1836     1740     1782 1
    1837     1741     1742 1
    1838     1741     1783 1
    1839     1741     1784 1
    1840     1742     1743 1
    1841     1742     1785 1
    1842     1742     1786 1
    1843     1743     1744 1
    1844     1743     1787 1
    1845     1743     1788 1
    1846     1744     1745 1
    1847     1744     1789 1
    1848     1744     1790 1
    1849     1745     1746 1
    1850     1745     1791 1
    1851     1745     1792 1
    1852     1746     1793 1
    1853     1746     1794 1
    1854     1746     1795 1
    1855     1747     1748 1
    1856     1747     1796 1
    1857     1747     1797 1
    1858     1748     1749 1
    1859     1749     1750 1
    1860     1749     1798 1
    1861     1749     1799 1
    1862     1750     1751 1
    1863     1750     1757 1
    1864     1750     1800 1
    1865     1751     1752 1
    1866     1751     1801 1
    1867     1751     1802 1
    1868     1752     1753 1
    1869     1752     1803 1
    1870     1752     1804 1
    1871     1753     1754 1
    1872     1753     1805 1
    1873     1753     1806 1
    1874     1754     1755 1
    1875     1754     1807 1
    1876     1754     1808 1
    1877     1755     1756 1
    1878     1755     1809 1
    1879     1755     1810 1
    1880     1756     1811 1
    1881     1756     1812 1
    1882     1756     1813 1
    1883     1757     1758 1
    1884     1757     1814 1
    1885     1757     1815 1
    1886     1758     1759 1
    1887     1758     1816 1
    1888     1758     1817 1
    1889     1759     1760 1
    1890     1759     1818 1
    1891     1759     1819 1
    1892     1760     1761 1
    1893     1760     1820 1
    1894     1760     1821 1
    1895     1761     1762 1
    1896     1761     1822 1
    1897     1761     1823 1
    1898     1762     1763 1
    1899     1762     1824 1
    1900     1762     1825 1
    1901     1763     1764 1
    1902     1763     1826 1
    1903     1763     1827 1
    1904     1764     1828 1
    1905     1764     1829 1
    1906     1764     1830 1
    1907     1831     1832 1
    1908     1831     1838 1
    1909     1831     1870 1
    1910     1832     1833 1
    1911     1832     1836 1
    1912     1833     1834 1
    1913     1833     1837 1
    1914     1834     1835 1
    1915     1835     1836 1
    1916     1835     1846 1
    1917     1836     1842 1
    1918     1837     1838 1
    1919     1837     1841 1
    1920     1838     1839 1
    1921     1839     1840 1
    1922     1839     1843 1
    1923     1840     1841 1
    1924     1844     1845 1
    1925     1844     1852 1
    1926     1845     1846 1
    1927     1845     1853 1
    1928     1846     1847 1
    1929     1847     1848 1
    1930     1847     1851 1
    1931     1848     1849 1
    1932     1849     1850 1
    1933     1850     1851 1
    1934     1851     1852 1
    1935     1852     1962 1
    1936     1854     1855 1
    1937     1854     1887 1
    1938     1854     1888 1
    1939     1854     1889 1
    1940     1855     1856 1
    1941     1855     1890 1
    1942     1855     1891 1
    1943     1856     1857 1
    1944     1856     1892 1
    1945     1856     1893 1
    1946     1857     1858 1
    1947     1857     1894 1
    1948     1857     1895 1
    1949     1858     1859 1
    1950     1858     1896 1
    1951     1858     1897 1
    1952     1859     1860 1
    1953     1859     1898 1
    1954     1859     1899 1
    1955     1860     1861 1
    1956     1860     1900 1
    1957     1860     1901 1
    1958     1861     1862 1
    1959     1861     1902 1
    1960     1861     1903 1
    1961     1862     1863 1
    1962     1862     1869 1
    1963     1862     1904 1
    1964     1863     1864 1
    1965     1863     1905 1
    1966     1863     1906 1
    1967     1864     1865 1
    1968     1864     1907 1
    1969     1864     1908 1
    1970     1865     1866 1
    1971     1865     1909 1
    1972     1865     1910 1
    1973     1866     1867 1
    1974     1866     1911 1
    1975     1866     1912 1
    1976     1867     1868 1
    1977     1867     1913 1
    1978     1867     1914 1
    1979     1868     1915 1
    1980     1868     1916 1
    1981     1868     1917 1
    1982     1869     1870 1
    1983     1869     1918 1
    1984     1869     1919 1
    1985     1870     1871 1
    1986     1871     1872 1
    1987     1871     1920 1
    1988     1871     1921 1
    1989     1872     1873 1
    1990     1872     1879 1
    1991     1872     1922 1
    1992     1873     1874 1
    1993     1873     1923 1
    1994     1873     1924 1
    1995     1874     1875 1
    1996     1874     1925 1
    1997     1874     1926 1
    1998     1875     1876 1
    1999     1875     1927 1
    2000     1875     1928 1
    2001     1876     1877 1
    2002     1876     1929 1
    2003     1876     1930 1
    2004     1877     1878 1
    2005     1877     1931 1
    2006     1877     1932 1
    2007     1878     1933 1
    2008     1878     1934 1
    2009     1878     1935 1
    2010     1879     1880 1
    2011     1879     1936 1
    2012     1879     1937 1
    2013     1880     1881 1
    2014     1880     1938 1
    2015     1880     1939 1
    2016     1881     1882 1
    2017     1881     1940 1
    2018     1881     1941 1
    2019     1882     1883 1
    2020     1882     1942 1
    2021     1882     1943 1
    2022     1883     1884 1
    2023     1883     1944 1
    2024     1883     1945 1
    2025     1884     1885 1
    2026     1884     1946 1
    2027     1884     1947 1
    2028     1885     1886 1
    2029     1885     1948 1
    2030     1885     1949 1
    2031     1886     1950 1
    2032     1886     1951 1
    2033     1886     1952 1
    2034     1953     1954 1
    2035     1953     1960 1
    2036     1953     1992 1
    2037     1954     1955 1
    2038     1954     1958 1
    2039     1955     1956 1
    2040     1955     1959 1
    2041     1956     1957 1
    2042     1957     1958 1
    2043     1957     1968 1
    2044     1958     1964 1
    2045     1959     1960 1
    2046     1959     1963 1
    2047     1960     1961 1
    2048     1961     1962 1
    2049     1961     1965 1
    2050     1962     1963 1
    2051     1966     1967 1
    2052     1966     1974 1
    2053     1967     1968 1
    2054     1967     1975 1
    2055     1968     1969 1
    2056     1969     1970 1
    2057     1969     1973 1
    2058     1970     1971 1
    2059     1971     1972 1
    2060     1972     1973 1
    2061     1973     1974 1
    2062     1974     2084 1
    2063     1976     1977 1
    2064     1976     2009 1
    2065     1976     2010 1
    2066     1976     2011 1
    2067     1977     1978 1
    2068     1977     2012 1
    2069     1977     2013 1
    2070     1978     1979 1
    2071     1978     2014 1
    2072     1978     2015 1
    2073     1979     1980 1
    2074     1979     2016 1
    2075     1979     2017 1
    2076     1980     1981 1
    2077     1980     2018 1
    2078     1980     2019 1
    2079     1981     1982 1
    2080     1981     2020 1
    2081     1981     2021 1
    2082     1982     1983 1
    2083     1982     2022 1
    2084     1982     2023 1
    2085     1983     1984 1
    2086     1983     2024 1
    2087     1983     2025 1
    2088     1984     1985 1
    2089     1984     1991 1
    2090     1984     2026 1
    2091     1985     1986 1
    2092     1985     2027 1
    2093     1985     2028 1
    2094     1986     1987 1
    2095     1986     2029 1
    2096     1986     2030 1
    2097     1987     1988 1
    2098     1987     2031 1
    2099     1987     2032 1
    2100     1988     1989 1
    2101     1988     2033 1
    2102     1988     2034 1
    2103     1989     1990 1
    2104     1989     2035 1
    2105     1989     2036 1
    2106     1990     2037 1
    2107     1990     2038 1
    2108     1990     2039 1
    2109     1991     1992 1
    2110     1991     2040 1
    2111     1991     2041 1
    2112     1992     1993 1
    2113     1993     1994 1
    2114     1993     2042 1
    2115     1993     2043 1
    2116     1994     1995 1
    2117     1994     2001 1
    2118     1994     2044 1
    2119     1995     1996 1
    2120     1995     2045 1
    2121     1995     2046 1
    2122     1996     1997 1
    2123     1996     2047 1
    2124     1996     2048 1
    2125     1997     1998 1
    2126     1997     2049 1
    2127     1997     2050 1
    2128     1998     1999 1
    2129     1998     2051 1
    2130     1998     2052 1
    2131     1999     2000 1
    2132     1999     2053 1
    2133     1999     2054 1
    2134     2000     2055 1
    2135     2000     2056 1
    2136     2000     2057 1
    2137     2001     2002 1
    2138     2001     2058 1
    2139     2001     2059 1
    2140     2002     2003 1
    2141     2002     2060 1
    2142     2002     2061 1
    2143     2003     2004 1
    2144     2003     2062 1
    2145     2003     2063 1
    2146     2004     2005 1
    2147     2004     2064 1
    2148     2004     2065 1
    2149     2005     2006 1
    2150     2005     2066 1
    2151     2005     2067 1
    2152     2006     2007 1
    2153     2006     2068 1
    2154     2006     2069 1
    2155     2007     2008 1
    2156     2007     2070 1
    2157     2007     2071 1
    2158     2008     2072 1
    2159     2008     2073 1
    2160     2008     2074 1
    2161     2075     2076 1
    2162     2075     2082 1
    2163     2075     2114 1
    2164     2076     2077 1
    2165     2076     2080 1
    2166     2077     2078 1
    2167     2077     2081 1
    2168     2078     2079 1
    2169     2079     2080 1
    2170     2079     2090 1
    2171     2080     2086 1
    2172     2081     2082 1
    2173     2081     2085 1
    2174     2082     2083 1
    2175     2083     2084 1
    2176     2083     2087 1
    2177     2084     2085 1
    2178     2088     2089 1
    2179     2088     2096 1
    2180     2089     2090 1
    2181     2089     2097 1
    2182     2090     2091 1
    2183     2091     2092 1
    2184     2091     2095 1
    2185     2092     2093 1
    2186     2093     2094 1
    2187     2094     2095 1
    2188     2095     2096 1
    2189     2096     2206 1
    2190     2098     2099 1
    2191     2098     2131 1
    2192     2098     2132 1
    2193     2098     2133 1
    2194     2099     2100 1
    2195     2099     2134 1
    2196     2099     2135 1
    2197     2100     2101 1
    2198     2100     2136 1
    2199     2100     2137 1
    2200     2101     2102 1
    2201     2101     2138 1
    2202     2101     2139 1
    2203     2102     2103 1
    2204     2102     2140 1
    2205     2102     2141 1
    2206     2103     2104 1
    2207     2103     2142 1
    2208     2103     2143 1
    2209     2104     2105 1
    2210     2104     2144 1
    2211     2104     2145 1
    2212     2105     2106 1
    2213     2105     2146 1
    2214     2105     2147 1
    2215     2106     2107 1
    2216     2106     2113 1
    2217     2106     2148 1
    2218     2107     2108 1
    2219     2107     2149 1
    2220     2107     2150 1
    2221     2108     2109 1
    2222     2108     2151 1
    2223     2108     2152 1
    2224     2109     2110 1
    2225     2109     2153 1
    2226     2109     2154 1
    2227     2110     2111 1
    2228     2110     2155 1
    2229     2110     2156 1
    2230     2111     2112 1
    2231     2111     2157 1
    2232     2111     2158 1
    2233     2112     2159 1
    2234     2112     2160 1
    2235     2112     2161 1
    2236     2113     2114 1
    2237     2113     2162 1
    2238     2113     2163 1
    2239     2114     2115 1
    2240     2115     2116 1
    2241     2115     2164 1
    2242     2115     2165 1
    2243     2116     2117 1
    2244     2116     2123 1
    2245     2116     2166 1
    2246     2117     2118 1
    2247     2117     2167 1
    2248     2117     2168 1
    2249     2118     2119 1
    2250     2118     2169 1
    2251     2118     2170 1
    2252     2119     2120 1
    2253     2119     2171 1
    2254     2119     2172 1
    2255     2120     2121 1
    2256     2120     2173 1
    2257     2120     2174 1
    2258     2121     2122 1
    2259     2121     2175 1
    2260     2121     2176 1
    2261     2122     2177 1
    2262     2122     2178 1
    2263     2122     2179 1
    2264     2123     2124 1
    2265     2123     2180 1
    2266     2123     2181 1
    2267     2124     2125 1
    2268     2124     2182 1
    2269     2124     2183 1
    2270     2125     2126 1
    2271     2125     2184 1
    2272     2125     2185 1
    2273     2126     2127 1
    2274     2126     2186 1
    2275     2126     2187 1
    2276     2127     2128 1
    2277     2127     2188 1
    2278     2127     2189 1
    2279     2128     2129 1
    2280     2128     2190 1
    2281     2128     2191 1
    2282     2129     2130 1
    2283     2129     2192 1
    2284     2129     2193 1
    2285     2130     2194 1
    2286     2130     2195 1
    2287     2130     2196 1
    2288     2197     2198 1
    2289     2197     2204 1
    2290     2197     2236 1
    2291     2198     2199 1
    2292     2198     2202 1
    2293     2199     2200 1
    2294     2199     2203 1
    2295     2200     2201 1
    2296     2201     2202 1
    2297     2201     2212 1
    2298     2202     2208 1
    2299     2203     2204 1
    2300     2203     2207 1
    2301     2204     2205 1
    2302     2205     2206 1
    2303     2205     2209 1
    2304     2206     2207 1
    2305     2210     2211 1
    2306     2210     2218 1
    2307     2211     2212 1
    2308     2211     2219 1
    2309     2212     2213 1
    2310     2213     2214 1
    2311     2213     2217 1
    2312     2214     2215 1
    2313     2215     2216 1
    2314     2216     2217 1
    2315     2217     2218 1
    2316     2218     2328 1
    2317     2220     2221 1
    2318     2220     2253 1
    2319     2220     2254 1
    2320     2220     2255 1
    2321     2221     2222 1
    2322     2221     2256 1
    2323     2221     2257 1
    2324     2222     2223 1
    2325     2222     2258 1
    2326     2222     2259 1
    2327     2223     2224 1
    2328     2223     2260 1
    2329     2223     2261 1
    2330     2224     2225 1
    2331     2224     2262 1
    2332     2224     2263 1
    2333     2225     2226 1
    2334     2225     2264 1
    2335     2225     2265 1
    2336     2226     2227 1
    2337     2226     2266 1
    2338     2226     2267 1
    2339     2227     2228 1
    2340     2227     2268 1
    2341     2227     2269 1
    2342     2228     2229 1
    2343     2228     2235 1
    2344     2228     2270 1
    2345     2229     2230 1
    2346     2229     2271 1
    2347     2229     2272 1
    2348     2230     2231 1
    2349     2230     2273 1
    2350     2230     2274 1
    2351     2231     2232 1
    2352     2231     2275 1
    2353     2231     2276 1
    2354     2232     2233 1
    2355     2232     2277 1
    2356     2232     2278 1
    2357     2233     2234 1
    2358     2233     2279 1
    2359     2233     2280 1
    2360     2234     2281 1
    2361     2234     2282 1
    2362     2234     2283 1
    2363     2235     2236 1
    2364     2235     2284 1
    2365     2235     2285 1
    2366     2236     2237 1
    2367     2237     2238 1
    2368     2237     2286 1
    2369     2237     2287 1
    2370     2238     2239 1
    2371     2238     2245 1
    2372     2238     2288 1
    2373     2239     2240 1
    2374     2239     2289 1
    2375     2239     2290 1
    2376     2240     2241 1
    2377     2240     2291 1
    2378     2240     2292 1
    2379     2241     2242 1
    2380     2241     2293 1
    2381     2241     2294 1
    2382     2242     2243 1
    2383     2242     2295 1
    2384     2242     2296 1
    2385     2243     2244 1
    2386     2243     2297 1
    2387     2243     2298 1
    2388     2244     2299 1
    2389     2244     2300 1
    2390     2244     2301 1
    2391     2245     2246 1
    2392     2245     2302 1
    2393     2245     2303 1
    2394     2246     2247 1
    2395     2246     2304 1
    2396     2246     2305 1
    2397     2247     2248 1
    2398     2247     2306 1
    2399     2247     2307 1
    2400     2248     2249 1
    2401     2248     2308 1
    2402     2248     2309 1
    2403     2249     2250 1
    2404     2249     2310 1
    2405     2249     2311 1
    2406     2250     2251 1
    2407     2250     2312 1
    2408     2250     2313 1
    2409     2251     2252 1
    2410     2251     2314 1
    2411     2251     2315 1
    2412     2252     2316 1
    2413     2252     2317 1
    2414     2252     2318 1
    2415     2319     2320 1
    2416     2319     2326 1
    2417     2319     2358 1
    2418     2320     2321 1
    2419     2320     2324 1
    2420     2321     2322 1
    2421     2321     2325 1
    2422     2322     2323 1
    2423     2323     2324 1
    2424     2323     2334 1
    2425     2324     2330 1
    2426     2325     2326 1
    2427     2325     2329 1
    2428     2326     2327 1
    2429     2327     2328 1
    2430     2327     2331 1
    2431     2328     2329 1
    2432     2332     2333 1
    2433     2332     2340 1
    2434     2333     2334 1
    2435     2333     2341 1
    2436     2334     2335 1
    2437     2335     2336 1
    2438     2335     2339 1
    2439     2336     2337 1
    2440     2337     2338 1
    2441     2338     2339 1
    2442     2339     2340 1
    2443     2340     2450 1
    2444     2342     2343 1
    2445     2342     2375 1
    2446     2342     2376 1
    2447     2342     2377 1
    2448     2343     2344 1
    2449     2343     2378 1
    2450     2343     2379 1
    2451     2344     2345 1
    2452     2344     2380 1
    2453     2344     2381 1
    2454     2345     2346 1
    2455     2345     2382 1
    2456     2345     2383 1
    2457     2346     2347 1
    2458     2346     2384 1
    2459     2346     2385 1
    2460     2347     2348 1
    2461     2347     2386 1
    2462     2347     2387 1
    2463     2348     2349 1
    2464     2348     2388 1
    2465     2348     2389 1
    2466     2349     2350 1
    2467     2349     2390 1
    2468     2349     2391 1
    2469     2350     2351 1
    2470     2350     2357 1
    2471     2350     2392 1
    2472     2351     2352 1
    2473     2351     2393 1
    2474     2351     2394 1
    2475     2352     2353 1
    2476     2352     2395 1
    2477     2352     2396 1
    2478     2353     2354 1
    2479     2353     2397 1
    2480     2353     2398 1
    2481     2354     2355 1
    2482     2354     2399 1
    2483     2354     2400 1
    2484     2355     2356 1
    2485     2355     2401 1
    2486     2355     2402 1
    2487     2356     2403 1
    2488     2356     2404 1
    2489     2356     2405 1
    2490     2357     2358 1
    2491     2357     2406 1
    2492     2357     2407 1
    2493     2358     2359 1
    2494     2359     2360 1
    2495     2359     2408 1
    2496     2359     2409 1
    2497     2360     2361 1
    2498     2360     2367 1
    2499     2360     2410 1
    2500     2361     2362 1
    2501     2361     2411 1
    2502     2361     2412 1
    2503     2362     2363 1
    2504     2362     2413 1
    2505     2362     2414 1
    2506     2363     2364 1
    2507     2363     2415 1
    2508     2363     2416 1
    2509     2364     2365 1
    2510     2364     2417 1
    2511     2364     2418 1
    2512     2365     2366 1
    2513     2365     2419 1
    2514     2365     2420 1
    2515     2366     2421 1
    2516     2366     2422 1
    2517     2366     2423 1
    2518     2367     2368 1
    2519     2367     2424 1
    2520     2367     2425 1
    2521     2368     2369 1
    2522     2368     2426 1
    2523     2368     2427 1
    2524     2369     2370 1
    2525     2369     2428 1
    2526     2369     2429 1
    2527     2370     2371 1
    2528     2370     2430 1
    2529     2370     2431 1
    2530     2371     2372 1
    2531     2371     2432 1
    2532     2371     2433 1
    2533     2372     2373 1
    2534     2372     2434 1
    2535     2372     2435 1
    2536     2373     2374 1
    2537     2373     2436 1
    2538     2373     2437 1
    2539     2374     2438 1
    2540     2374     2439 1
    2541     2374     2440 1
    2542     2441     2442 1
    2543     2441     2448 1
    2544     2441     2480 1
    2545     2442     2443 1
    2546     2442     2446 1
    2547     2443     2444 1
    2548     2443     2447 1
    2549     2444     2445 1
    2550     2445     2446 1
    2551     2445     2456 1
    2552     2446     2452 1
    2553     2447     2448 1
    2554     2447     2451 1
    2555     2448     2449 1
    2556     2449     2450 1
    2557     2449     2453 1
    2558     2450     2451 1
    2559     2454     2455 1
    2560     2454     2462 1
    2561     2455     2456 1
    2562     2455     2463 1
    2563     2456     2457 1
    2564     2457     2458 1
    2565     2457     2461 1
    2566     2458     2459 1
    2567     2459     2460 1
    2568     2460     2461 1
    2569     2461     2462 1
    2570     2462     2572 1
    2571     2464     2465 1
    2572     2464     2497 1
    2573     2464     2498 1
    2574     2464     2499 1
    2575     2465     2466 1
    2576     2465     2500 1
    2577     2465     2501 1
    2578     2466     2467 1
    2579     2466     2502 1
    2580     2466     2503 1
    2581     2467     2468 1
    2582     2467     2504 1
    2583     2467     2505 1
    2584     2468     2469 1
    2585     2468     2506 1
    2586     2468     2507 1
    2587     2469     2470 1
    2588     2469     2508 1
    2589     2469     2509 1
    2590     2470     2471 1
    2591     2470     2510 1
    2592     2470     2511 1
    2593     2471     2472 1
    2594     2471     2512 1
    2595     2471     2513 1
    2596     2472     2473 1
    2597     2472     2479 1
    2598     2472     2514 1
    2599     2473     2474 1
    2600     2473     2515 1
    2601     2473     2516 1
    2602     2474     2475 1
    2603     2474     2517 1
    2604     2474     2518 1
    2605     2475     2476 1
    2606     2475     2519 1
    2607     2475     2520 1
    2608     2476     2477 1
    2609     2476     2521 1
    2610     2476     2522 1
    2611     2477     2478 1
    2612     2477     2523 1
    2613     2477     2524 1
    2614     2478     2525 1
    2615     2478     2526 1
    2616     2478     2527 1
    2617     2479     2480 1
    2618     2479     2528 1
    2619     2479     2529 1
    2620     2480     2481 1
    2621     2481     2482 1
    2622     2481     2530 1
    2623     2481     2531 1
    2624     2482     2483 1
    2625     2482     2489 1
    2626     2482     2532 1
    2627     2483     2484 1
    2628     2483     2533 1
    2629     2483     2534 1
    2630     2484     2485 1
    2631     2484     2535 1
    2632     2484     2536 1
    2633     2485     2486 1
    2634     2485     2537 1
    2635     2485     2538 1
    2636     2486     2487 1
    2637     2486     2539 1
    2638     2486     2540 1
    2639     2487     2488 1
    2640     2487     2541 1
    2641     2487     2542 1
    2642     2488     2543 1
    2643     2488     2544 1
    2644     2488     2545 1
    2645     2489     2490 1
    2646     2489     2546 1
    2647     2489     2547 1
    2648     2490     2491 1
    2649     2490     2548 1
    2650     2490     2549 1
    2651     2491     2492 1
    2652     2491     2550 1
    2653     2491     2551 1
    2654     2492     2493 1
    2655     2492     2552 1
    2656     2492     2553 1
    2657     2493     2494 1
    2658     2493     2554 1
    2659     2493     2555 1
    2660     2494     2495 1
    2661     2494     2556 1
    2662     2494     2557 1
    2663     2495     2496 1
    2664     2495     2558 1
    2665     2495     2559 1
    2666     2496     2560 1
    2667     2496     2561 1
    2668     2496     2562 1
    2669     2563     2564 1
    2670     2563     2570 1
    2671     2563     2602 1
    2672     2564     2565 1
    2673     2564     2568 1
    2674     2565     2566 1
    2675     2565     2569 1
    2676     2566     2567 1
    2677     2567     2568 1
    2678     2567     2578 1
    2679     2568     2574 1
    2680     2569     2570 1
    2681     2569     2573 1
    2682     2570     2571 1
    2683     2571     2572 1
    2684     2571     2575 1
    2685     2572     2573 1
    2686     2576     2577 1
    2687     2576     2584 1
    2688     2577     2578 1
    2689     2577     2585 1
    2690     2578     2579 1
    2691     2579     2580 1
    2692     2579     2583 1
    2693     2580     2581 1
    2694     2581     2582 1
    2695     2582     2583 1
    2696     2583     2584 1
    2697     2584     2694 1
    2698     2586     2587 1
    2699     2586     2619 1
    2700     2586     2620 1
    2701     2586     2621 1
    2702     2587     2588 1
    2703     2587     2622 1
    2704     2587     2623 1
    2705     2588     2589 1
    2706     2588     2624 1
    2707     2588     2625 1
    2708     2589     2590 1
    2709     2589     2626 1
    2710     2589     2627 1
    2711     2590     2591 1
    2712     2590     2628 1
    2713     2590     2629 1
    2714     2591     2592 1
    2715     2591     2630 1
    2716     2591     2631 1
    2717     2592     2593 1
    2718     2592     2632 1
    2719     2592     2633 1
    2720     2593     2594 1
    2721     2593     2634 1
    2722     2593     2635 1
    2723     2594     2595 1
    2724     2594     2601 1
    2725     2594     2636 1
    2726     2595     2596 1
    2727     2595     2637 1
    2728     2595     2638 1
    2729     2596     2597 1
    2730     2596     2639 1
    2731     2596     2640 1
    2732     2597     2598 1
    2733     2597     2641 1
    2734     2597     2642 1
    2735     2598     2599 1
    2736     2598     2643 1
    2737     2598     2644 1
    2738     2599     2600 1
    2739     2599     2645 1
    2740     2599     2646 1
    2741     2600     2647 1
    2742     2600     2648 1
    2743     2600     2649 1
    2744     2601     2602 1
    2745     2601     2650 1
    2746     2601     2651 1
    2747     2602     2603 1
    2748     2603     2604 1
    2749     2603     2652 1
    2750     2603     2653 1
    2751     2604     2605 1
    2752     2604     2611 1
    2753     2604     2654 1
    2754     2605     2606 1
    2755     2605     2655 1
    2756     2605     2656 1
    2757     2606     2607 1
    2758     2606     2657 1
    2759     2606     2658 1
    2760     2607     2608 1
    2761     2607     2659 1
    2762     2607     2660 1
    2763     2608     2609 1
    2764     2608     2661 1
    2765     2608     2662 1
    2766     2609     2610 1
    2767     2609     2663 1
    2768     2609     2664 1
    2769     2610     2665 1
    2770     2610     2666 1
    2771     2610     2667 1
    2772     2611     2612 1
    2773     2611     2668 1
    2774     2611     2669 1
    2775     2612     2613 1
    2776     2612     2670 1
    2777     2612     2671 1
    2778     2613     2614 1
    2779     2613     2672 1
    2780     2613     2673 1
    2781     2614     2615 1
    2782     2614     2674 1
    2783     2614     2675 1
    2784     2615     2616 1
    2785     2615     2676 1
    2786     2615     2677 1
    2787     2616     2617 1
    2788     2616     2678 1
    2789     2616     2679 1
    2790     2617     2618 1
    2791     2617     2680 1
    2792     2617     2681 1
    2793     2618     2682 1
    2794     2618     2683 1
    2795     2618     2684 1
    2796     2685     2686 1
    2797     2685     2692 1
    2798     2685     2724 1
    2799     2686     2687 1
    2800     2686     2690 1
    2801     2687     2688 1
    2802     2687     2691 1
    2803     2688     2689 1
    2804     2689     2690 1
    2805     2689     2700 1
    2806     2690     2696 1
    2807     2691     2692 1
    2808     2691     2695 1
    2809     2692     2693 1
    2810     2693     2694 1
    2811     2693     2697 1
    2812     2694     2695 1
    2813     2698     2699 1
    2814     2698     2706 1
    2815     2699     2700 1
    2816     2699     2707 1
    2817     2700     2701 1
    2818     2701     2702 1
    2819     2701     2705 1
    2820     2702     2703 1
    2821     2703     2704 1
    2822     2704     2705 1
    2823     2705     2706 1
    2824     2706     2816 1
    2825     2708     2709 1
    2826     2708     2741 1
    2827     2708     2742 1
    2828     2708     2743 1
    2829     2709     2710 1
    2830     2709     2744 1
    2831     2709     2745 1
    2832     2710     2711 1
    2833     2710     2746 1
    2834     2710     2747 1
    2835     2711     2712 1
    2836     2711     2748 1
    2837     2711     2749 1
    2838     2712     2713 1
    2839     2712     2750 1
    2840     2712     2751 1
    2841     2713     2714 1
    2842     2713     2752 1
    2843     2713     2753 1
    2844     2714     2715 1
    2845     2714     2754 1
    2846     2714     2755 1
    2847     2715     2716 1
    2848     2715     2756 1
    2849     2715     2757 1
    2850     2716     2717 1
    2851     2716     2723 1
    2852     2716     2758 1
    2853     2717     2718 1
    2854     2717     2759 1
    2855     2717     2760 1
    2856     2718     2719 1
    2857     2718     2761 1
    2858     2718     2762 1
    2859     2719     2720 1
    2860     2719     2763 1
    2861     2719     2764 1
    2862     2720     2721 1
    2863     2720     2765 1
    2864     2720     2766 1
    2865     2721     2722 1
    2866     2721     2767 1
    2867     2721     2768 1
    2868     2722     2769 1
    2869     2722     2770 1
    2870     2722     2771 1
    2871     2723     2724 1
    2872     2723     2772 1
    2873     2723     2773 1
    2874     2724     2725 1
    2875     2725     2726 1
    2876     2725     2774 1
    2877     2725     2775 1
    2878     2726     2727 1
    2879     2726     2733 1
    2880     2726     2776 1
    2881     2727     2728 1
    2882     2727     2777 1
    2883     2727     2778 1
    2884     2728     2729 1
    2885     2728     2779 1
    2886     2728     2780 1
    2887     2729     2730 1
    2888     2729     2781 1
    2889     2729     2782 1
    2890     2730     2731 1
    2891     2730     2783 1
    2892     2730     2784 1
    2893     2731     2732 1
    2894     2731     2785 1
    2895     2731     2786 1
    2896     2732     2787 1
    2897     2732     2788 1
    2898     2732     2789 1
    2899     2733     2734 1
    2900     2733     2790 1
    2901     2733     2791 1
    2902     2734     2735 1
    2903     2734     2792 1
    2904     2734     2793 1
    2905     2735     2736 1
    2906     2735     2794 1
    2907     2735     2795 1
    2908     2736     2737 1
    2909     2736     2796 1
    2910     2736     2797 1
    2911     2737     2738 1
    2912     2737     2798 1
    2913     2737     2799 1
    2914     2738     2739 1
    2915     2738     2800 1
    2916     2738     2801 1
    2917     2739     2740 1
    2918     2739     2802 1
    2919     2739     2803 1
    2920     2740     2804 1
    2921     2740     2805 1
    2922     2740     2806 1
    2923     2807     2808 1
    2924     2807     2814 1
    2925     2807     2846 1
    2926     2808     2809 1
    2927     2808     2812 1
    2928     2809     2810 1
    2929     2809     2813 1
    2930     2810     2811 1
    2931     2811     2812 1
    2932     2811     2822 1
    2933     2812     2818 1
    2934     2813     2814 1
    2935     2813     2817 1
    2936     2814     2815 1
    2937     2815     2816 1
    2938     2815     2819 1
    2939     2816     2817 1
    2940     2820     2821 1
    2941     2820     2828 1
    2942     2821     2822 1
    2943     2821     2829 1
    2944     2822     2823 1
    2945     2823     2824 1
    2946     2823     2827 1
    2947     2824     2825 1
    2948     2825     2826 1
    2949     2826     2827 1
    2950     2827     2828 1
    2951     2828     2938 1
    2952     2830     2831 1
    2953     2830     2863 1
    2954     2830     2864 1
    2955     2830     2865 1
    2956     2831     2832 1
    2957     2831     2866 1
    2958     2831     2867 1
    2959     2832     2833 1
    2960     2832     2868 1
    2961     2832     2869 1
    2962     2833     2834 1
    2963     2833     2870 1
    2964     2833     2871 1
    2965     2834     2835 1
    2966     2834     2872 1
    2967     2834     2873 1
    2968     2835     2836 1
    2969     2835     2874 1
    2970     2835     2875 1
    2971     2836     2837 1
    2972     2836     2876 1
    2973     2836     2877 1
    2974     2837     2838 1
    2975     2837     2878 1
    2976     2837     2879 1
    2977     2838     2839 1
    2978     2838     2845 1
    2979     2838     2880 1
    2980     2839     2840 1
    2981     2839     2881 1
    2982     2839     2882 1
    2983     2840     2841 1
    2984     2840     2883 1
    2985     2840     2884 1
    2986     2841     2842 1
    2987     2841     2885 1
    2988     2841     2886 1
    2989     2842     2843 1
    2990     2842     2887 1
    2991     2842     2888 1
    2992     2843     2844 1
    2993     2843     2889 1
    2994     2843     2890 1
    2995     2844     2891 1
    2996     2844     2892 1
    2997     2844     2893 1
    2998     2845     2846 1
    2999     2845     2894 1
    3000     2845     2895 1
    3001     2846     2847 1
    3002     2847     2848 1
    3003     2847     2896 1
    3004     2847     2897 1
    3005     2848     2849 1
    3006     2848     2855 1
    3007     2848     2898 1
    3008     2849     2850 1
    3009     2849     2899 1
    3010     2849     2900 1
    3011     2850     2851 1
    3012     2850     2901 1
    3013     2850     2902 1
    3014     2851     2852 1
    3015     2851     2903 1
    3016     2851     2904 1
    3017     2852     2853 1
    3018     2852     2905 1
    3019     2852     2906 1
    3020     2853     2854 1
    3021     2853     2907 1
    3022     2853     2908 1
    3023     2854     2909 1
    3024     2854     2910 1
    3025     2854     2911 1
    3026     2855     2856 1
    3027     2855     2912 1
    3028     2855     2913 1
    3029     2856     2857 1
    3030     2856     2914 1
    3031     2856     2915 1
    3032     2857     2858 1
    3033     2857     2916 1
    3034     2857     2917 1
    3035     2858     2859 1
    3036     2858     2918 1
    3037     2858     2919 1
    3038     2859     2860 1
    3039     2859     2920 1
    3040     2859     2921 1
    3041     2860     2861 1
    3042     2860     2922 1
    3043     2860     2923 1
    3044     2861     2862 1
    3045     2861     2924 1
    3046     2861     2925 1
    3047     2862     2926 1
    3048     2862     2927 1
    3049     2862     2928 1
    3050     2929     2930 1
    3051     2929     2936 1
    3052     2929     2968 1
    3053     2930     2931 1
    3054     2930     2934 1
    3055     2931     2932 1
    3056     2931     2935 1
    3057     2932     2933 1
    3058     2933     2934 1
    3059     2933     2944 1
    3060     2934     2940 1
    3061     2935     2936 1
    3062     2935     2939 1
    3063     2936     2937 1
    3064     2937     2938 1
    3065     2937     2941 1
    3066     2938     2939 1
    3067     2942     2943 1
    3068     2942     2950 1
    3069     2943     2944 1
    3070     2943     2951 1
    3071     2944     2945 1
    3072     2945     2946 1
    3073     2945     2949 1
    3074     2946     2947 1
    3075     2947     2948 1
    3076     2948     2949 1
    3077     2949     2950 1
    3078     2950     3060 1
    3079     2952     2953 1
    3080     2952     2985 1
    3081     2952     2986 1
    3082     2952     2987 1
    3083     2953     2954 1
    3084     2953     2988 1
    3085     2953     2989 1
    3086     2954     2955 1
    3087     2954     2990 1
    3088     2954     2991 1
    3089     2955     2956 1
    3090     2955     2992 1
    3091     2955     2993 1
    3092     2956     2957 1
    3093     2956     2994 1
    3094     2956     2995 1
    3095     2957     2958 1
    3096     2957     2996 1
    3097     2957     2997 1
    3098     2958     2959 1
    3099     2958     2998 1
    3100     2958     2999 1
    3101     2959     2960 1
    3102     2959     3000 1
    3103     2959     3001 1
    3104     2960     2961 1
    3105     2960     2967 1
    3106     2960     3002 1
    3107     2961     2962 1
    3108     2961     3003 1
    3109     2961     3004 1
    3110     2962     2963 1
    3111     2962     3005 1
    3112     2962     3006 1
    3113     2963     2964 1
    3114     2963     3007 1
    3115     2963     3008 1
    3116     2964     2965 1
    3117     2964     3009 1
    3118     2964     3010 1
    3119     2965     2966 1
    3120     2965     3011 1
    3121     2965     3012 1
    3122     2966     3013 1
    3123     2966     3014 1
    3124     2966     3015 1
    3125     2967     2968 1
    3126     2967     3016 1
    3127     2967     3017 1
    3128     2968     2969 1
    3129     2969     2970 1
    3130     2969     3018 1
    3131     2969     3019 1
    3132     2970     2971 1
    3133     2970     2977 1
    3134     2970     3020 1
    3135     2971     2972 1
    3136     2971     3021 1
    3137     2971     3022 1
    3138     2972     2973 1
    3139     2972     3023 1
    3140     2972     3024 1
    3141     2973     2974 1
    3142     2973     3025 1
    3143     2973     3026 1
    3144     2974     2975 1
    3145     2974     3027 1
    3146     2974     3028 1
    3147     2975     2976 1
    3148     2975     3029 1
    3149     2975     3030 1
    3150     2976     3031 1
    3151     2976     3032 1
    3152     2976     3033 1
    3153     2977     2978 1
    3154     2977     3034 1
    3155     2977     3035 1
    3156     2978     2979 1
    3157     2978     3036 1
    3158     2978     3037 1
    3159     2979     2980 1
    3160     2979     3038 1
    3161     2979     3039 1
    3162     2980     2981 1
    3163     2980     3040 1
    3164     2980     3041 1
    3165     2981     2982 1
    3166     2981     3042 1
    3167     2981     3043 1
    3168     2982     2983 1
    3169     2982     3044 1
    3170     2982     3045 1
    3171     2983     2984 1
    3172     2983     3046 1
    3173     2983     3047 1
    3174     2984     3048 1
    3175     2984     3049 1
    3176     2984     3050 1
    3177     3051     3052 1
    3178     3051     3058 1
    3179     3051     3090 1
    3180     3052     3053 1
    3181     3052     3056 1
    3182     3053     3054 1
    3183     3053     3057 1
    3184     3054     3055 1
    3185     3055     3056 1
    3186     3055     3066 1
    3187     3056     3062 1
    3188     3057     3058 1
    3189     3057     3061 1
    3190     3058     3059 1
    3191     3059     3060 1
    3192     3059     3063 1
    3193     3060     3061 1
    3194     3064     3065 1
    3195     3064     3072 1
    3196     3065     3066 1
    3197     3065     3073 1
    3198     3066     3067 1
    3199     3067     3068 1
    3200     3067     3071 1
    3201     3068     3069 1
    3202     3069     3070 1
    3203     3070     3071 1
    3204     3071     3072 1
    3205     3072     3182 1
    3206     3074     3075 1
    3207     3074     3107 1
    3208     3074     3108 1
    3209     3074     3109 1
    3210     3075     3076 1
    3211     3075     3110 1
    3212     3075     3111 1
    3213     3076     3077 1
    3214     3076     3112 1
    3215     3076     3113 1
    3216     3077     3078 1
    3217     3077     3114 1
    3218     3077     3115 1
    3219     3078     3079 1
    3220     3078     3116 1
    3221     3078     3117 1
    3222     3079     3080 1
    3223     3079     3118 1
    3224     3079     3119 1
    3225     3080     3081 1
    3226     3080     3120 1
    3227     3080     3121 1
    3228     3081     3082 1
    3229     3081     3122 1
    3230     3081     3123 1
    3231     3082     3083 1
    3232     3082     3089 1
    3233     3082     3124 1
    3234     3083     3084 1
    3235     3083     3125 1
    3236     3083     3126 1
    3237     3084     3085 1
    3238     3084     3127 1
    3239     3084     3128 1
    3240     3085     3086 1
    3241     3085     3129 1
    3242     3085     3130 1
    3243     3086     3087 1
    3244     3086     3131 1
    3245     3086     3132 1
    3246     3087     3088 1
    3247     3087     3133 1
    3248     3087     3134 1
    3249     3088     3135 1
    3250     3088     3136 1
    3251     3088     3137 1
    3252     3089     3090 1
    3253     3089     3138 1
    3254     3089     3139 1
    3255     3090     3091 1
    3256     3091     3092 1
    3257     3091     3140 1
    3258     3091     3141 1
    3259     3092     3093 1
    3260     3092     3099 1
    3261     3092     3142 1
    3262     3093     3094 1
    3263     3093     3143 1
    3264     3093     3144 1
    3265     3094     3095 1
    3266     3094     3145 1
    3267     3094     3146 1
    3268     3095     3096 1
    3269     3095     3147 1
    3270     3095     3148 1
    3271     3096     3097 1
    3272     3096     3149 1
    3273     3096     3150 1
    3274     3097     3098 1
    3275     3097     3151 1
    3276     3097     3152 1
    3277     3098     3153 1
    3278     3098     3154 1
    3279     3098     3155 1
    3280     3099     3100 1
    3281     3099     3156 1
    3282     3099     3157 1
    3283     3100     3101 1
    3284     3100     3158 1
    3285     3100     3159 1
    3286     3101     3102 1
    3287     3101     3160 1
    3288     3101     3161 1
    3289     3102     3103 1
    3290     3102     3162 1
    3291     3102     3163 1
    3292     3103     3104 1
    3293     3103     3164 1
    3294     3103     3165 1
    3295     3104     3105 1
    3296     3104     3166 1
    3297     3104     3167 1
    3298     3105     3106 1
    3299     3105     3168 1
    3300     3105     3169 1
    3301     3106     3170 1
    3302     3106     3171 1
    3303     3106     3172 1
    3304     3173     3174 1
    3305     3173     3180 1
    3306     3173     3212 1
    3307     3174     3175 1
    3308     3174     3178 1
    3309     3175     3176 1
    3310     3175     3179 1
    3311     3176     3177 1
    3312     3177     3178 1
    3313     3177     3188 1
    3314     3178     3184 1
    3315     3179     3180 1
    3316     3179     3183 1
    3317     3180     3181 1
    3318     3181     3182 1
    3319     3181     3185 1
    3320     3182     3183 1
    3321     3186     3187 1
    3322     3186     3194 1
    3323     3187     3188 1
    3324     3187     3195 1
    3325     3188     3189 1
    3326     3189     3190 1
    3327     3189     3193 1
    3328     3190     3191 1
    3329     3191     3192 1
    3330     3192     3193 1
    3331     3193     3194 1
    3332     3194     3304 1
    3333     3196     3197 1
    3334     3196     3229 1
    3335     3196     3230 1
    3336     3196     3231 1
    3337     3197     3198 1
    3338     3197     3232 1
    3339     3197     3233 1
    3340     3198     3199 1
    3341     3198     3234 1
    3342     3198     3235 1
    3343     3199     3200 1
    3344     3199     3236 1
    3345     3199     3237 1
    3346     3200     3201 1
    3347     3200     3238 1
    3348     3200     3239 1
    3349     3201     3202 1
    3350     3201     3240 1
    3351     3201     3241 1
    3352     3202     3203 1
    3353     3202     3242 1
    3354     3202     3243 1
    3355     3203     3204 1
    3356     3203     3244 1
    3357     3203     3245 1
    3358     3204     3205 1
    3359     3204     3211 1
    3360     3204     3246 1
    3361     3205     3206 1
    3362     3205     3247 1
    3363     3205     3248 1
    3364     3206     3207 1
    3365     3206     3249 1
    3366     3206     3250 1
    3367     3207     3208 1
    3368     3207     3251 1
    3369     3207     3252 1
    3370     3208     3209 1
    3371     3208     3253 1
    3372     3208     3254 1
    3373     3209     3210 1
    3374     3209     3255 1
    3375     3209     3256 1
    3376     3210     3257 1
    3377     3210     3258 1
    3378     3210     3259 1
    3379     3211     3212 1
    3380     3211     3260 1
    3381     3211     3261 1
    3382     3212     3213 1
    3383     3213     3214 1
    3384     3213     3262 1
    3385     3213     3263 1
    3386     3214     3215 1
    3387     3214     3221 1
    3388     3214     3264 1
    3389     3215     3216 1
    3390     3215     3265 1
    3391     3215     3266 1
    3392     3216     3217 1
    3393     3216     3267 1
    3394     3216     3268 1
    3395     3217     3218 1
    3396     3217     3269 1
    3397     3217     3270 1
    3398     3218     3219 1
    3399     3218     3271 1
    3400     3218     3272 1
    3401     3219     3220 1
    3402     3219     3273 1
    3403     3219     3274 1
    3404     3220     3275 1
    3405     3220     3276 1
    3406     3220     3277 1
    3407     3221     3222 1
    3408     3221     3278 1
    3409     3221     3279 1
    3410     3222     3223 1
    3411     3222     3280 1
    3412     3222     3281 1
    3413     3223     3224 1
    3414     3223     3282 1
    3415     3223     3283 1
    3416     3224     3225 1
    3417     3224     3284 1
    3418     3224     3285 1
    3419     3225     3226 1
    3420     3225     3286 1
    3421     3225     3287 1
    3422     3226     3227 1
    3423     3226     3288 1
    3424     3226     3289 1
    3425     3227     3228 1
    3426     3227     3290 1
    3427     3227     3291 1
    3428     3228     3292 1
    3429     3228     3293 1
    3430     3228     3294 1
    3431     3295     3296 1
    3432     3295     3302 1
    3433     3295     3334 1
    3434     3296     3297 1
    3435     3296     3300 1
    3436     3297     3298 1
    3437     3297     3301 1
    3438     3298     3299 1
    3439     3299     3300 1
    3440     3299     3310 1
    3441     3300     3306 1
    3442     3301     3302 1
    3443     3301     3305 1
    3444     3302     3303 1
    3445     3303     3304 1
    3446     3303     3307 1
    3447     3304     3305 1
    3448     3308     3309 1
    3449     3308     3316 1
    3450     3309     3310 1
    3451     3309     3317 1
    3452     3310     3311 1
    3453     3311     3312 1
    3454     3311     3315 1
    3455     3312     3313 1
    3456     3313     3314 1
    3457     3314     3315 1
    3458     3315     3316 1
    3459     3316     3426 1
    3460     3318     3319 1
    3461     3318     3351 1
    3462     3318     3352 1
    3463     3318     3353 1
    3464     3319     3320 1
    3465     3319     3354 1
    3466     3319     3355 1
    3467     3320     3321 1
    3468     3320     3356 1
    3469     3320     3357 1
    3470     3321     3322 1
    3471     3321     3358 1
    3472     3321     3359 1
    3473     3322     3323 1
    3474     3322     3360 1
    3475     3322     3361 1
    3476     3323     3324 1
    3477     3323     3362 1
    3478     3323     3363 1
    3479     3324     3325 1
    3480     3324     3364 1
    3481     3324     3365 1
    3482     3325     3326 1
    3483     3325     3366 1
    3484     3325     3367 1
    3485     3326     3327 1
    3486     3326     3333 1
    3487     3326     3368 1
    3488     3327     3328 1
    3489     3327     3369 1
    3490     3327     3370 1
    3491     3328     3329 1
    3492     3328     3371 1
    3493     3328     3372 1
    3494     3329     3330 1
    3495     3329     3373 1
    3496     3329     3374 1
    3497     3330     3331 1
    3498     3330     3375 1
    3499     3330     3376 1
    3500     3331     3332 1
    3501     3331     3377 1
    3502     3331     3378 1
    3503     3332     3379 1
    3504     3332     3380 1
    3505     3332     3381 1
    3506     3333     3334 1
    3507     3333     3382 1
    3508     3333     3383 1
    3509     3334     3335 1
    3510     3335     3336 1
    3511     3335     3384 1
    3512     3335     3385 1
    3513     3336     3337 1
    3514     3336     3343 1
    3515     3336     3386 1
    3516     3337     3338 1
    3517     3337     3387 1
    3518     3337     3388 1
    3519     3338     3339 1
    3520     3338     3389 1
    3521     3338     3390 1
    3522     3339     3340 1
    3523     3339     3391 1
    3524     3339     3392 1
    3525     3340     3341 1
    3526     3340     3393 1
    3527     3340     3394 1
    3528     3341     3342 1
    3529     3341     3395 1
    3530     3341     3396 1
    3531     3342     3397 1
    3532     3342     3398 1
    3533     3342     3399 1
    3534     3343     3344 1
    3535     3343     3400 1
    3536     3343     3401 1
    3537     3344     3345 1
    3538     3344     3402 1
    3539     3344     3403 1
    3540     3345     3346 1
    3541     3345     3404 1
    3542     3345     3405 1
    3543     3346     3347 1
    3544     3346     3406 1
    3545     3346     3407 1
    3546     3347     3348 1
    3547     3347     3408 1
    3548     3347     3409 1
    3549     3348     3349 1
    3550     3348     3410 1
    3551     3348     3411 1
    3552     3349     3350 1
    3553     3349     3412 1
    3554     3349     3413 1
    3555     3350     3414 1
    3556     3350     3415 1
    3557     3350     3416 1
    3558     3417     3418 1
    3559     3417     3424 1
    3560     3417     3456 1
    3561     3418     3419 1
    3562     3418     3422 1
    3563     3419     3420 1
    3564     3419     3423 1
    3565     3420     3421 1
    3566     3421     3422 1
    3567     3421     3432 1
    3568     3422     3428 1
    3569     3423     3424 1
    3570     3423     3427 1
    3571     3424     3425 1
    3572     3425     3426 1
    3573     3425     3429 1
    3574     3426     3427 1
    3575     3430     3431 1
    3576     3430     3438 1
    3577     3431     3432 1
    3578     3431     3439 1
    3579     3432     3433 1
    3580     3433     3434 1
    3581     3433     3437 1
    3582     3434     3435 1
    3583     3435     3436 1
    3584     3436     3437 1
    3585     3437     3438 1
    3586     3438     3548 1
    3587     3440     3441 1
    3588     3440     3473 1
    3589     3440     3474 1
    3590     3440     3475 1
    3591     3441     3442 1
    3592     3441     3476 1
    3593     3441     3477 1
    3594     3442     3443 1
    3595     3442     3478 1
    3596     3442     3479 1
    3597     3443     3444 1
    3598     3443     3480 1
    3599     3443     3481 1
    3600     3444     3445 1
    3601     3444     3482 1
    3602     3444     3483 1
    3603     3445     3446 1
    3604     3445     3484 1
    3605     3445     3485 1
    3606     3446     3447 1
    3607     3446     3486 1
    3608     3446     3487 1
    3609     3447     3448 1
    3610     3447     3488 1
    3611     3447     3489 1
    3612     3448     3449 1
    3613     3448     3455 1
    3614     3448     3490 1
    3615     3449     3450 1
    3616     3449     3491 1
    3617     3449     3492 1
    3618     3450     3451 1
    3619     3450     3493 1
    3620     3450     3494 1
    3621     3451     3452 1
    3622     3451     3495 1
    3623     3451     3496 1
    3624     3452     3453 1
    3625     3452     3497 1
    3626     3452     3498 1
    3627     3453     3454 1
    3628     3453     3499 1
    3629     3453     3500 1
    3630     3454     3501 1
    3631     3454     3502 1
    3632     3454     3503 1
    3633     3455     3456 1
    3634     3455     3504 1
    3635     3455     3505 1
    3636     3456     3457 1
    3637     3457     3458 1
    3638     3457     3506 1
    3639     3457     3507 1
    3640     3458     3459 1
    3641     3458     3465 1
    3642     3458     3508 1
    3643     3459     3460 1
    3644     3459     3509 1
    3645     3459     3510 1
    3646     3460     3461 1
    3647     3460     3511 1
    3648     3460     3512 1
    3649     3461     3462 1
    3650     3461     3513 1
    3651     3461     3514 1
    3652     3462     3463 1
    3653     3462     3515 1
    3654     3462     3516 1
    3655     3463     3464 1
    3656     3463     3517 1
    3657     3463     3518 1
    3658     3464     3519 1
    3659     3464     3520 1
    3660     3464     3521 1
    3661     3465     3466 1
    3662     3465     3522 1
    3663     3465     3523 1
    3664     3466     3467 1
    3665     3466     3524 1
    3666     3466     3525 1
    3667     3467     3468 1
    3668     3467     3526 1
    3669     3467     3527 1
    3670     3468     3469 1
    3671     3468     3528 1
    3672     3468     3529 1
    3673     3469     3470 1
    3674     3469     3530 1
    3675     3469     3531 1
    3676     3470     3471 1
    3677     3470     3532 1
    3678     3470     3533 1
    3679     3471     3472 1
    3680     3471     3534 1
    3681     3471     3535 1
    3682     3472     3536 1
    3683     3472     3537 1
    3684     3472     3538 1
    3685     3539     3540 1
    3686     3539     3546 1
    3687     3539     3578 1
    3688     3540     3541 1
    3689     3540     3544 1
    3690     3541     3542 1
    3691     3541     3545 1
    3692     3542     3543 1
    3693     3543     3544 1
    3694     3543     3554 1
    3695     3544     3550 1
    3696     3545     3546 1
    3697     3545     3549 1
    3698     3546     3547 1
    3699     3547     3548 1
    3700     3547     3551 1
    3701     3548     3549 1
    3702     3552     3553 1
    3703     3552     3560 1
    3704     3553     3554 1
    3705     3553     3561 1
    3706     3554     3555 1
    3707     3555     3556 1
    3708     3555     3559 1
    3709     3556     3557 1
    3710     3557     3558 1
    3711     3558     3559 1
    3712     3559     3560 1
    3713     3560     3670 1
    3714     3562     3563 1
    3715     3562     3595 1
    3716     3562     3596 1
    3717     3562     3597 1
    3718     3563     3564 1
    3719     3563     3598 1
    3720     3563     3599 1
    3721     3564     3565 1
    3722     3564     3600 1
    3723     3564     3601 1
    3724     3565     3566 1
    3725     3565     3602 1
    3726     3565     3603 1
    3727     3566     3567 1
    3728     3566     3604 1
    3729     3566     3605 1
    3730     3567     3568 1
    3731     3567     3606 1
    3732     3567     3607 1
    3733     3568     3569 1
    3734     3568     3608 1
    3735     3568     3609 1
    3736     3569     3570 1
    3737     3569     3610 1
    3738     3569     3611 1
    3739     3570     3571 1
    3740     3570     3577 1
    3741     3570     3612 1
    3742     3571     3572 1
    3743     3571     3613 1
    3744     3571     3614 1
    3745     3572     3573 1
    3746     3572     3615 1
    3747     3572     3616 1
    3748     3573     3574 1
    3749     3573     3617 1
    3750     3573     3618 1
    3751     3574     3575 1
    3752     3574     3619 1
    3753     3574     3620 1
    3754     3575     3576 1
    3755     3575     3621 1
    3756     3575     3622 1
    3757     3576     3623 1
    3758     3576     3624 1
    3759     3576     3625 1
    3760     3577     3578 1
    3761     3577     3626 1
    3762     3577     3627 1
    3763     3578     3579 1
    3764     3579     3580 1
    3765     3579     3628 1
    3766     3579     3629 1
    3767     3580     3581 1
    3768     3580     3587 1
    3769     3580     3630 1
    3770     3581     3582 1
    3771     3581     3631 1
    3772     3581     3632 1
    3773     3582     3583 1
    3774     3582     3633 1
    3775     3582     3634 1
    3776     3583     3584 1
    3777     3583     3635 1
    3778     3583     3636 1
    3779     3584     3585 1
    3780     3584     3637 1
    3781     3584     3638 1
    3782     3585     3586 1
    3783     3585     3639 1
    3784     3585     3640 1
    3785     3586     3641 1
    3786     3586     3642 1
    3787     3586     3643 1
    3788     3587     3588 1
    3789     3587     3644 1
    3790     3587     3645 1
    3791     3588     3589 1
    3792     3588     3646 1
    3793     3588     3647 1
    3794     3589     3590 1
    3795     3589     3648 1
    3796     3589     3649 1
    3797     3590     3591 1
    3798     3590     3650 1
    3799     3590     3651 1
    3800     3591     3592 1
    3801     3591     3652 1
    3802     3591     3653 1
    3803     3592     3593 1
    3804     3592     3654 1
    3805     3592     3655 1
    3806     3593     3594 1
    3807     3593     3656 1
    3808     3593     3657 1
    3809     3594     3658 1
    3810     3594     3659 1
    3811     3594     3660 1
    3812     3661     3662 1
    3813     3661     3668 1
    3814     3661     3700 1
    3815     3662     3663 1
    3816     3662     3666 1
    3817     3663     3664 1
    3818     3663     3667 1
    3819     3664     3665 1
    3820     3665     3666 1
    3821     3665     3676 1
    3822     3666     3672 1
    3823     3667     3668 1
    3824     3667     3671 1
    3825     3668     3669 1
    3826     3669     3670 1
    3827     3669     3673 1
    3828     3670     3671 1
    3829     3674     3675 1
    3830     3674     3682 1
    3831     3675     3676 1
    3832     3675     3683 1
    3833     3676     3677 1
    3834     3677     3678 1
    3835     3677     3681 1
    3836     3678     3679 1
    3837     3679     3680 1
    3838     3680     3681 1
    3839     3681     3682 1
    3840     3682     3792 1
    3841     3684     3685 1
    3842     3684     3717 1
    3843     3684     3718 1
    3844     3684     3719 1
    3845     3685     3686 1
    3846     3685     3720 1
    3847     3685     3721 1
    3848     3686     3687 1
    3849     3686     3722 1
    3850     3686     3723 1
    3851     3687     3688 1
    3852     3687     3724 1
    3853     3687     3725 1
    3854     3688     3689 1
    3855     3688     3726 1
    3856     3688     3727 1
    3857     3689     3690 1
    3858     3689     3728 1
    3859     3689     3729 1
    3860     3690     3691 1
    3861     3690     3730 1
    3862     3690     3731 1
    3863     3691     3692 1
    3864     3691     3732 1
    3865     3691     3733 1
    3866     3692     3693 1
    3867     3692     3699 1
    3868     3692     3734 1
    3869     3693     3694 1
    3870     3693     3735 1
    3871     3693     3736 1
    3872     3694     3695 1
    3873     3694     3737 1
    3874     3694     3738 1
    3875     3695     3696 1
    3876     3695     3739 1
    3877     3695     3740 1
    3878     3696     3697 1
    3879     3696     3741 1
    3880     3696     3742 1
    3881     3697     3698 1
    3882     3697     3743 1
    3883     3697     3744 1
    3884     3698     3745 1
    3885     3698     3746 1
    3886     3698     3747 1
    3887     3699     3700 1
    3888     3699     3748 1
    3889     3699     3749 1
    3890     3700     3701 1
    3891     3701     3702 1
    3892     3701     3750 1
    3893     3701     3751 1
    3894     3702     3703 1
    3895     3702     3709 1
    3896     3702     3752 1
    3897     3703     3704 1
    3898     3703     3753 1
    3899     3703     3754 1
    3900     3704     3705 1
    3901     3704     3755 1
    3902     3704     3756 1
    3903     3705     3706 1
    3904     3705     3757 1
    3905     3705     3758 1
    3906     3706     3707 1
    3907     3706     3759 1
    3908     3706     3760 1
    3909     3707     3708 1
    3910     3707     3761 1
    3911     3707     3762 1
    3912     3708     3763 1
    3913     3708     3764 1
    3914     3708     3765 1
    3915     3709     3710 1
    3916     3709     3766 1
    3917     3709     3767 1
    3918     3710     3711 1
    3919     3710     3768 1
    3920     3710     3769 1
    3921     3711     3712 1
    3922     3711     3770 1
    3923     3711     3771 1
    3924     3712     3713 1
    3925     3712     3772 1
    3926     3712     3773 1
    3927     3713     3714 1
    3928     3713     3774 1
    3929     3713     3775 1
    3930     3714     3715 1
    3931     3714     3776 1
    3932     3714     3777 1
    3933     3715     3716 1
    3934     3715     3778 1
    3935     3715     3779 1
    3936     3716     3780 1
    3937     3716     3781 1
    3938     3716     3782 1
    3939     3783     3784 1
    3940     3783     3790 1
    3941     3783     3822 1
    3942     3784     3785 1
    3943     3784     3788 1
    3944     3785     3786 1
    3945     3785     3789 1
    3946     3786     3787 1
    3947     3787     3788 1
    3948     3787     3798 1
    3949     3788     3794 1
    3950     3789     3790 1
    3951     3789     3793 1
    3952     3790     3791 1
    3953     3791     3792 1
    3954     3791     3795 1
    3955     3792     3793 1
    3956     3796     3797 1
    3957     3796     3804 1
    3958     3797     3798 1
    3959     3797     3805 1
    3960     3798     3799 1
    3961     3799     3800 1
    3962     3799     3803 1
    3963     3800     3801 1
    3964     3801     3802 1
    3965     3802     3803 1
    3966     3803     3804 1
    3967     3804     3914 1
    3968     3806     3807 1
    3969     3806     3839 1
    3970     3806     3840 1
    3971     3806     3841 1
    3972     3807     3808 1
    3973     3807     3842 1
    3974     3807     3843 1
    3975     3808     3809 1
    3976     3808     3844 1
    3977     3808     3845 1
    3978     3809     3810 1
    3979     3809     3846 1
    3980     3809     3847 1
    3981     3810     3811 1
    3982     3810     3848 1
    3983     3810     3849 1
    3984     3811     3812 1
    3985     3811     3850 1
    3986     3811     3851 1
    3987     3812     3813 1
    3988     3812     3852 1
    3989     3812     3853 1
    3990     3813     3814 1
    3991     3813     3854 1
    3992     3813     3855 1
    3993     3814     3815 1
    3994     3814     3821 1
    3995     3814     3856 1
    3996     3815     3816 1
    3997     3815     3857 1
    3998     3815     3858 1
    3999     3816     3817 1
    4000     3816     3859 1
    4001     3816     3860 1
    4002     3817     3818 1
    4003     3817     3861 1
    4004     3817     3862 1
    4005     3818     3819 1
    4006     3818     3863 1
    4007     3818     3864 1
    4008     3819     3820 1
    4009     3819     3865 1
    4010     3819     3866 1
    4011     3820     3867 1
    4012     3820     3868 1
    4013     3820     3869 1
    4014     3821     3822 1
    4015     3821     3870 1
    4016     3821     3871 1
    4017     3822     3823 1
    4018     3823     3824 1
    4019     3823     3872 1
    4020     3823     3873 1
    4021     3824     3825 1
    4022     3824     3831 1
    4023     3824     3874 1
    4024     3825     3826 1
    4025     3825     3875 1
    4026     3825     3876 1
    4027     3826     3827 1
    4028     3826     3877 1
    4029     3826     3878 1
    4030     3827     3828 1
    4031     3827     3879 1
    4032     3827     3880 1
    4033     3828     3829 1
    4034     3828     3881 1
    4035     3828     3882 1
    4036     3829     3830 1
    4037     3829     3883 1
    4038     3829     3884 1
    4039     3830     3885 1
    4040     3830     3886 1
    4041     3830     3887 1
    4042     3831     3832 1
    4043     3831     3888 1
    4044     3831     3889 1
    4045     3832     3833 1
    4046     3832     3890 1
    4047     3832     3891 1
    4048     3833     3834 1
    4049     3833     3892 1
    4050     3833     3893 1
    4051     3834     3835 1
    4052     3834     3894 1
    4053     3834     3895 1
    4054     3835     3836 1
    4055     3835     3896 1
    4056     3835     3897 1
    4057     3836     3837 1
    4058     3836     3898 1
    4059     3836     3899 1
    4060     3837     3838 1
    4061     3837     3900 1
    4062     3837     3901 1
    4063     3838     3902 1
    4064     3838     3903 1
    4065     3838     3904 1
    4066     3905     3906 1
    4067     3905     3912 1
    4068     3905     3944 1
    4069     3906     3907 1
    4070     3906     3910 1
    4071     3907     3908 1
    4072     3907     3911 1
    4073     3908     3909 1
    4074     3909     3910 1
    4075     3909     3920 1
    4076     3910     3916 1
    4077     3911     3912 1
    4078     3911     3915 1
    4079     3912     3913 1
    4080     3913     3914 1
    4081     3913     3917 1
    4082     3914     3915 1
    4083     3918     3919 1
    4084     3918     3926 1
    4085     3919     3920 1
    4086     3919     3927 1
    4087     3920     3921 1
    4088     3921     3922 1
    4089     3921     3925 1
    4090     3922     3923 1
    4091     3923     3924 1
    4092     3924     3925 1
    4093     3925     3926 1
    4094     3926     4036 1
    4095     3928     3929 1
    4096     3928     3961 1
    4097     3928     3962 1
    4098     3928     3963 1
    4099     3929     3930 1
    4100     3929     3964 1
    4101     3929     3965 1
    4102     3930     3931 1
    4103     3930     3966 1
    4104     3930     3967 1
    4105     3931     3932 1
    4106     3931     3968 1
    4107     3931     3969 1
    4108     3932     3933 1
    4109     3932     3970 1
    4110     3932     3971 1
    4111     3933     3934 1
    4112     3933     3972 1
    4113     3933     3973 1
    4114     3934     3935 1
    4115     3934     3974 1
    4116     3934     3975 1
    4117     3935     3936 1
    4118     3935     3976 1
    4119     3935     3977 1
    4120     3936     3937 1
    4121     3936     3943 1
    4122     3936     3978 1
    4123     3937     3938 1
    4124     3937     3979 1
    4125     3937     3980 1
    4126     3938     3939 1
    4127     3938     3981 1
    4128     3938     3982 1
    4129     3939     3940 1
    4130     3939     3983 1
    4131     3939     3984 1
    4132     3940     3941 1
    4133     3940     3985 1
    4134     3940     3986 1
    4135     3941     3942 1
    4136     3941     3987 1
    4137     3941     3988 1
    4138     3942     3989 1
    4139     3942     3990 1
    4140     3942     3991 1
    4141     3943     3944 1
    4142     3943     3992 1
    4143     3943     3993 1
    4144     3944     3945 1
    4145     3945     3946 1
    4146     3945     3994 1
    4147     3945     3995 1
    4148     3946     3947 1
    4149     3946     3953 1
    4150     3946     3996 1
    4151     3947     3948 1
    4152     3947     3997 1
    4153     3947     3998 1
    4154     3948     3949 1
    4155     3948     3999 1
    4156     3948     4000 1
    4157     3949     3950 1
    4158     3949     4001 1
    4159     3949     4002 1
    4160     3950     3951 1
    4161     3950     4003 1
    4162     3950     4004 1
    4163     3951     3952 1
    4164     3951     4005 1
    4165     3951     4006 1
    4166     3952     4007 1
    4167     3952     4008 1
    4168     3952     4009 1
    4169     3953     3954 1
    4170     3953     4010 1
    4171     3953     4011 1
    4172     3954     3955 1
    4173     3954     4012 1
    4174     3954     4013 1
    4175     3955     3956 1
    4176     3955     4014 1
    4177     3955     4015 1
    4178     3956     3957 1
    4179     3956     4016 1
    4180     3956     4017 1
    4181     3957     3958 1
    4182     3957     4018 1
    4183     3957     4019 1
    4184     3958     3959 1
    4185     3958     4020 1
    4186     3958     4021 1
    4187     3959     3960 1
    4188     3959     4022 1
    4189     3959     4023 1
    4190     3960     4024 1
    4191     3960     4025 1
    4192     3960     4026 1
    4193     4027     4028 1
    4194     4027     4034 1
    4195     4027     4066 1
    4196     4028     4029 1
    4197     4028     4032 1
    4198     4029     4030 1
    4199     4029     4033 1
    4200     4030     4031 1
    4201     4031     4032 1
    4202     4031     4042 1
    4203     4032     4038 1
    4204     4033     4034 1
    4205     4033     4037 1
    4206     4034     4035 1
    4207     4035     4036 1
    4208     4035     4039 1
    4209     4036     4037 1
    4210     4040     4041 1
    4211     4040     4048 1
    4212     4041     4042 1
    4213     4041     4049 1
    4214     4042     4043 1
    4215     4043     4044 1
    4216     4043     4047 1
    4217     4044     4045 1
    4218     4045     4046 1
    4219     4046     4047 1
    4220     4047     4048 1
    4221     4048     4158 1
    4222     4050     4051 1
    4223     4050     4083 1
    4224     4050     4084 1
    4225     4050     4085 1
    4226     4051     4052 1
    4227     4051     4086 1
    4228     4051     4087 1
    4229     4052     4053 1
    4230     4052     4088 1
    4231     4052     4089 1
    4232     4053     4054 1
    4233     4053     4090 1
    4234     4053     4091 1
    4235     4054     4055 1
    4236     4054     4092 1
    4237     4054     4093 1
    4238     4055     4056 1
    4239     4055     4094 1
    4240     4055     4095 1
    4241     4056     4057 1
    4242     4056     4096 1
    4243     4056     4097 1
    4244     4057     4058 1
    4245     4057     4098 1
    4246     4057     4099 1
    4247     4058     4059 1
    4248     4058     4065 1
    4249     4058     4100 1
    4250     4059     4060 1
    4251     4059     4101 1
    4252     4059     4102 1
    4253     4060     4061 1
    4254     4060     4103 1
    4255     4060     4104 1
    4256     4061     4062 1
    4257     4061     4105 1
    4258     4061     4106 1
    4259     4062     4063 1
    4260     4062     4107 1
    4261     4062     4108 1
    4262     4063     4064 1
    4263     4063     4109 1
    4264     4063     4110 1
    4265     4064     4111 1
    4266     4064     4112 1
    4267     4064     4113 1
    4268     4065     4066 1
    4269     4065     4114 1
    4270     4065     4115 1
    4271     4066     4067 1
    4272     4067     4068 1
    4273     4067     4116 1
    4274     4067     4117 1
    4275     4068     4069 1
    4276     4068     4075 1
    4277     4068     4118 1
    4278     4069     4070 1
    4279     4069     4119 1
    4280     4069     4120 1
    4281     4070     4071 1
    4282     4070     4121 1
    4283     4070     4122 1
    4284     4071     4072 1
    4285     4071     4123 1
    4286     4071     4124 1
    4287     4072     4073 1
    4288     4072     4125 1
    4289     4072     4126 1
    4290     4073     4074 1
    4291     4073     4127 1
    4292     4073     4128 1
    4293     4074     4129 1
    4294     4074     4130 1
    4295     4074     4131 1
    4296     4075     4076 1
    4297     4075     4132 1
    4298     4075     4133 1
    4299     4076     4077 1
    4300     4076     4134 1
    4301     4076     4135 1
    4302     4077     4078 1
    4303     4077     4136 1
    4304     4077     4137 1
    4305     4078     4079 1
    4306     4078     4138 1
    4307     4078     4139 1
    4308     4079     4080 1
    4309     4079     4140 1
    4310     4079     4141 1
    4311     4080     4081 1
    4312     4080     4142 1
    4313     4080     4143 1
    4314     4081     4082 1
    4315     4081     4144 1
    4316     4081     4145 1
    4317     4082     4146 1
    4318     4082     4147 1
    4319     4082     4148 1
    4320     4149     4150 1
    4321     4149     4156 1
    4322     4149     4188 1
    4323     4150     4151 1
    4324     4150     4154 1
    4325     4151     4152 1
    4326     4151     4155 1
    4327     4152     4153 1
    4328     4153     4154 1
    4329     4153     4164 1
    4330     4154     4160 1
    4331     4155     4156 1
    4332     4155     4159 1
    4333     4156     4157 1
    4334     4157     4158 1
    4335     4157     4161 1
    4336     4158     4159 1
    4337     4162     4163 1
    4338     4162     4170 1
    4339     4163     4164 1
    4340     4163     4171 1
    4341     4164     4165 1
    4342     4165     4166 1
    4343     4165     4169 1
    4344     4166     4167 1
    4345     4167     4168 1
    4346     4168     4169 1
    4347     4169     4170 1
    4348     4170     4280 1
    4349     4172     4173 1
    4350     4172     4205 1
    4351     4172     4206 1
    4352     4172     4207 1
    4353     4173     4174 1
    4354     4173     4208 1
    4355     4173     4209 1
    4356     4174     4175 1
    4357     4174     4210 1
    4358     4174     4211 1
    4359     4175     4176 1
    4360     4175     4212 1
    4361     4175     4213 1
    4362     4176     4177 1
    4363     4176     4214 1
    4364     4176     4215 1
    4365     4177     4178 1
    4366     4177     4216 1
    4367     4177     4217 1
    4368     4178     4179 1
    4369     4178     4218 1
    4370     4178     4219 1
    4371     4179     4180 1
    4372     4179     4220 1
    4373     4179     4221 1
    4374     4180     4181 1
    4375     4180     4187 1
    4376     4180     4222 1
    4377     4181     4182 1
    4378     4181     4223 1
    4379     4181     4224 1
    4380     4182     4183 1
    4381     4182     4225 1
    4382     4182     4226 1
    4383     4183     4184 1
    4384     4183     4227 1
    4385     4183     4228 1
    4386     4184     4185 1
    4387     4184     4229 1
    4388     4184     4230 1
    4389     4185     4186 1
    4390     4185     4231 1
    4391     4185     4232 1
    4392     4186     4233 1
    4393     4186     4234 1
    4394     4186     4235 1
    4395     4187     4188 1
    4396     4187     4236 1
    4397     4187     4237 1
    4398     4188     4189 1
    4399     4189     4190 1
    4400     4189     4238 1
    4401     4189     4239 1
    4402     4190     4191 1
    4403     4190     4197 1
    4404     4190     4240 1
    4405     4191     4192 1
    4406     4191     4241 1
    4407     4191     4242 1
    4408     4192     4193 1
    4409     4192     4243 1
    4410     4192     4244 1
    4411     4193     4194 1
    4412     4193     4245 1
    4413     4193     4246 1
    4414     4194     4195 1
    4415     4194     4247 1
    4416     4194     4248 1
    4417     4195     4196 1
    4418     4195     4249 1
    4419     4195     4250 1
    4420     4196     4251 1
    4421     4196     4252 1
    4422     4196     4253 1
    4423     4197     4198 1
    4424     4197     4254 1
    4425     4197     4255 1
    4426     4198     4199 1
    4427     4198     4256 1
    4428     4198     4257 1
    4429     4199     4200 1
    4430     4199     4258 1
    4431     4199     4259 1
    4432     4200     4201 1
    4433     4200     4260 1
    4434     4200     4261 1
    4435     4201     4202 1
    4436     4201     4262 1
    4437     4201     4263 1
    4438     4202     4203 1
    4439     4202     4264 1
    4440     4202     4265 1
    4441     4203     4204 1
    4442     4203     4266 1
    4443     4203     4267 1
    4444     4204     4268 1
    4445     4204     4269 1
    4446     4204     4270 1
    4447     4271     4272 1
    4448     4271     4278 1
    4449     4271     4310 1
    4450     4272     4273 1
    4451     4272     4276 1
    4452     4273     4274 1
    4453     4273     4277 1
    4454     4274     4275 1
    4455     4275     4276 1
    4456     4275     4286 1
    4457     4276     4282 1
    4458     4277     4278 1
    4459     4277     4281 1
    4460     4278     4279 1
    4461     4279     4280 1
    4462     4279     4283 1
    4463     4280     4281 1
    4464     4284     4285 1
    4465     4284     4292 1
    4466     4285     4286 1
    4467     4285     4293 1
    4468     4286     4287 1
    4469     4287     4288 1
    4470     4287     4291 1
    4471     4288     4289 1
    4472     4289     4290 1
    4473     4290     4291 1
    4474     4291     4292 1
    4475     4292     4402 1
    4476     4294     4295 1
    4477     4294     4327 1
    4478     4294     4328 1
    4479     4294     4329 1
    4480     4295     4296 1
    4481     4295     4330 1
    4482     4295     4331 1
    4483     4296     4297 1
    4484     4296     4332 1
    4485     4296     4333 1
    4486     4297     4298 1
    4487     4297     4334 1
    4488     4297     4335 1
    4489     4298     4299 1
    4490     4298     4336 1
    4491     4298     4337 1
    4492     4299     4300 1
    4493     4299     4338 1
    4494     4299     4339 1
    4495     4300     4301 1
    4496     4300     4340 1
    4497     4300     4341 1
    4498     4301     4302 1
    4499     4301     4342 1
    4500     4301     4343 1
    4501     4302     4303 1
    4502     4302     4309 1
    4503     4302     4344 1
    4504     4303     4304 1
    4505     4303     4345 1
    4506     4303     4346 1
    4507     4304     4305 1
    4508     4304     4347 1
    4509     4304     4348 1
    4510     4305     4306 1
    4511     4305     4349 1
    4512     4305     4350 1
    4513     4306     4307 1
    4514     4306     4351 1
    4515     4306     4352 1
    4516     4307     4308 1
    4517     4307     4353 1
    4518     4307     4354 1
    4519     4308     4355 1
    4520     4308     4356 1
    4521     4308     4357 1
    4522     4309     4310 1
    4523     4309     4358 1
    4524     4309     4359 1
    4525     4310     4311 1
    4526     4311     4312 1
    4527     4311     4360 1
    4528     4311     4361 1
    4529     4312     4313 1
    4530     4312     4319 1
    4531     4312     4362 1
    4532     4313     4314 1
    4533     4313     4363 1
    4534     4313     4364 1
    4535     4314     4315 1
    4536     4314     4365 1
    4537     4314     4366 1
    4538     4315     4316 1
    4539     4315     4367 1
    4540     4315     4368 1
    4541     4316     4317 1
    4542     4316     4369 1
    4543     4316     4370 1
    4544     4317     4318 1
    4545     4317     4371 1
    4546     4317     4372 1
    4547     4318     4373 1
    4548     4318     4374 1
    4549     4318     4375 1
    4550     4319     4320 1
    4551     4319     4376 1
    4552     4319     4377 1
    4553     4320     4321 1
    4554     4320     4378 1
    4555     4320     4379 1
    4556     4321     4322 1
    4557     4321     4380 1
    4558     4321     4381 1
    4559     4322     4323 1
    4560     4322     4382 1
    4561     4322     4383 1
    4562     4323     4324 1
    4563     4323     4384 1
    4564     4323     4385 1
    4565     4324     4325 1
    4566     4324     4386 1
    4567     4324     4387 1
    4568     4325     4326 1
    4569     4325     4388 1
    4570     4325     4389 1
    4571     4326     4390 1
    4572     4326     4391 1
    4573     4326     4392 1
    4574     4393     4394 1
    4575     4393     4400 1
    4576     4393     4432 1
    4577     4394     4395 1
    4578     4394     4398 1
    4579     4395     4396 1
    4580     4395     4399 1
    4581     4396     4397 1
    4582     4397     4398 1
    4583     4397     4408 1
    4584     4398     4404 1
    4585     4399     4400 1
    4586     4399     4403 1
    4587     4400     4401 1
    4588     4401     4402 1
    4589     4401     4405 1
    4590     4402     4403 1
    4591     4406     4407 1
    4592     4406     4414 1
    4593     4407     4408 1
    4594     4407     4415 1
    4595     4408     4409 1
    4596     4409     4410 1
    4597     4409     4413 1
    4598     4410     4411 1
    4599     4411     4412 1
    4600     4412     4413 1
    4601     4413     4414 1
    4602     4414     4524 1
    4603     4416     4417 1
    4604     4416     4449 1
    4605     4416     4450 1
    4606     4416     4451 1
    4607     4417     4418 1
    4608     4417     4452 1
    4609     4417     4453 1
    4610     4418     4419 1
    4611     4418     4454 1
    4612     4418     4455 1
    4613     4419     4420 1
    4614     4419     4456 1
    4615     4419     4457 1
    4616     4420     4421 1
    4617     4420     4458 1
    4618     4420     4459 1
    4619     4421     4422 1
    4620     4421     4460 1
    4621     4421     4461 1
    4622     4422     4423 1
    4623     4422     4462 1
    4624     4422     4463 1
    4625     4423     4424 1
    4626     4423     4464 1
    4627     4423     4465 1
    4628     4424     4425 1
    4629     4424     4431 1
    4630     4424     4466 1
    4631     4425     4426 1
    4632     4425     4467 1
    4633     4425     4468 1
    4634     4426     4427 1
    4635     4426     4469 1
    4636     4426     4470 1
    4637     4427     4428 1
    4638     4427     4471 1
    4639     4427     4472 1
    4640     4428     4429 1
    4641     4428     4473 1
    4642     4428     4474 1
    4643     4429     4430 1
    4644     4429     4475 1
    4645     4429     4476 1
    4646     4430     4477 1
    4647     4430     4478 1
    4648     4430     4479 1
    4649     4431     4432 1
    4650     4431     4480 1
    4651     4431     4481 1
    4652     4432     4433 1
    4653     4433     4434 1
    4654     4433     4482 1
    4655     4433     4483 1
    4656     4434     4435 1
    4657     4434     4441 1
    4658     4434     4484 1
    4659     4435     4436 1
    4660     4435     4485 1
    4661     4435     4486 1
    4662     4436     4437 1
    4663     4436     4487 1
    4664     4436     4488 1
    4665     4437     4438 1
    4666     4437     4489 1
    4667     4437     4490 1
    4668     4438     4439 1
    4669     4438     4491 1
    4670     4438     4492 1
    4671     4439     4440 1
    4672     4439     4493 1
    4673     4439     4494 1
    4674     4440     4495 1
    4675     4440     4496 1
    4676     4440     4497 1
    4677     4441     4442 1
    4678     4441     4498 1
    4679     4441     4499 1
    4680     4442     4443 1
    4681     4442     4500 1
    4682     4442     4501 1
    4683     4443     4444 1
    4684     4443     4502 1
    4685     4443     4503 1
    4686     4444     4445 1
    4687     4444     4504 1
    4688     4444     4505 1
    4689     4445     4446 1
    4690     4445     4506 1
    4691     4445     4507 1
    4692     4446     4447 1
    4693     4446     4508 1
    4694     4446     4509 1
    4695     4447     4448 1
    4696     4447     4510 1
    4697     4447     4511 1
    4698     4448     4512 1
    4699     4448     4513 1
    4700     4448     4514 1
    4701     4515     4516 1
    4702     4515     4522 1
    4703     4515     4554 1
    4704     4516     4517 1
    4705     4516     4520 1
    4706     4517     4518 1
    4707     4517     4521 1
    4708     4518     4519 1
    4709     4519     4520 1
    4710     4519     4530 1
    4711     4520     4526 1
    4712     4521     4522 1
    4713     4521     4525 1
    4714     4522     4523 1
    4715     4523     4524 1
    4716     4523     4527 1
    4717     4524     4525 1
    4718     4528     4529 1
    4719     4528     4536 1
    4720     4529     4530 1
    4721     4529     4537 1
    4722     4530     4531 1
    4723     4531     4532 1
    4724     4531     4535 1
    4725     4532     4533 1
    4726     4533     4534 1
    4727     4534     4535 1
    4728     4535     4536 1
    4729     4536     4646 1
    4730     4538     4539 1
    4731     4538     4571 1
    4732     4538     4572 1
    4733     4538     4573 1
    4734     4539     4540 1
    4735     4539     4574 1
    4736     4539     4575 1
    4737     4540     4541 1
    4738     4540     4576 1
    4739     4540     4577 1
    4740     4541     4542 1
    4741     4541     4578 1
    4742     4541     4579 1
    4743     4542     4543 1
    4744     4542     4580 1
    4745     4542     4581 1
    4746     4543     4544 1
    4747     4543     4582 1
    4748     4543     4583 1
    4749     4544     4545 1
    4750     4544     4584 1
    4751     4544     4585 1
    4752     4545     4546 1
    4753     4545     4586 1
    4754     4545     4587 1
    4755     4546     4547 1
    4756     4546     4553 1
    4757     4546     4588 1
    4758     4547     4548 1
    4759     4547     4589 1
    4760     4547     4590 1
    4761     4548     4549 1
    4762     4548     4591 1
    4763     4548     4592 1
    4764     4549     4550 1
    4765     4549     4593 1
    4766     4549     4594 1
    4767     4550     4551 1
    4768     4550     4595 1
    4769     4550     4596 1
    4770     4551     4552 1
    4771     4551     4597 1
    4772     4551     4598 1
    4773     4552     4599 1
    4774     4552     4600 1
    4775     4552     4601 1
    4776     4553     4554 1
    4777     4553     4602 1
    4778     4553     4603 1
    4779     4554     4555 1
    4780     4555     4556 1
    4781     4555     4604 1
    4782     4555     4605 1
    4783     4556     4557 1
    4784     4556     4563 1
    4785     4556     4606 1
    4786     4557     4558 1
    4787     4557     4607 1
    4788     4557     4608 1
    4789     4558     4559 1
    4790     4558     4609 1
    4791     4558     4610 1
    4792     4559     4560 1
    4793     4559     4611 1
    4794     4559     4612 1
    4795     4560     4561 1
    4796     4560     4613 1
    4797     4560     4614 1
    4798     4561     4562 1
    4799     4561     4615 1
    4800     4561     4616 1
    4801     4562     4617 1
    4802     4562     4618 1
    4803     4562     4619 1
    4804     4563     4564 1
    4805     4563     4620 1
    4806     4563     4621 1
    4807     4564     4565 1
    4808     4564     4622 1
    4809     4564     4623 1
    4810     4565     4566 1
    4811     4565     4624 1
    4812     4565     4625 1
    4813     4566     4567 1
    4814     4566     4626 1
    4815     4566     4627 1
    4816     4567     4568 1
    4817     4567     4628 1
    4818     4567     4629 1
    4819     4568     4569 1
    4820     4568     4630 1
    4821     4568     4631 1
    4822     4569     4570 1
    4823     4569     4632 1
    4824     4569     4633 1
    4825     4570     4634 1
    4826     4570     4635 1
    4827     4570     4636 1
    4828     4637     4638 1
    4829     4637     4644 1
    4830     4637     4676 1
    4831     4638     4639 1
    4832     4638     4642 1
    4833     4639     4640 1
    4834     4639     4643 1
    4835     4640     4641 1
    4836     4641     4642 1
    4837     4641     4652 1
    4838     4642     4648 1
    4839     4643     4644 1
    4840     4643     4647 1
    4841     4644     4645 1
    4842     4645     4646 1
    4843     4645     4649 1
    4844     4646     4647 1
    4845     4650     4651 1
    4846     4650     4658 1
    4847     4651     4652 1
    4848     4651     4659 1
    4849     4652     4653 1
    4850     4653     4654 1
    4851     4653     4657 1
    4852     4654     4655 1
    4853     4655     4656 1
    4854     4656     4657 1
    4855     4657     4658 1
    4856     4658     4768 1
    4857     4660     4661 1
    4858     4660     4693 1
    4859     4660     4694 1
    4860     4660     4695 1
    4861     4661     4662 1
    4862     4661     4696 1
    4863     4661     4697 1
    4864     4662     4663 1
    4865     4662     4698 1
    4866     4662     4699 1
    4867     4663     4664 1
    4868     4663     4700 1
    4869     4663     4701 1
    4870     4664     4665 1
    4871     4664     4702 1
    4872     4664     4703 1
    4873     4665     4666 1
    4874     4665     4704 1
    4875     4665     4705 1
    4876     4666     4667 1
    4877     4666     4706 1
    4878     4666     4707 1
    4879     4667     4668 1
    4880     4667     4708 1
    4881     4667     4709 1
    4882     4668     4669 1
    4883     4668     4675 1
    4884     4668     4710 1
    4885     4669     4670 1
    4886     4669     4711 1
    4887     4669     4712 1
    4888     4670     4671 1
    4889     4670     4713 1
    4890     4670     4714 1
    4891     4671     4672 1
    4892     4671     4715 1
    4893     4671     4716 1
    4894     4672     4673 1
    4895     4672     4717 1
    4896     4672     4718 1
    4897     4673     4674 1
    4898     4673     4719 1
    4899     4673     4720 1
    4900     4674     4721 1
    4901     4674     4722 1
    4902     4674     4723 1
    4903     4675     4676 1
    4904     4675     4724 1
    4905     4675     4725 1
    4906     4676     4677 1
    4907     4677     4678 1
    4908     4677     4726 1
    4909     4677     4727 1
    4910     4678     4679 1
    4911     4678     4685 1
    4912     4678     4728 1
    4913     4679     4680 1
    4914     4679     4729 1
    4915     4679     4730 1
    4916     4680     4681 1
    4917     4680     4731 1
    4918     4680     4732 1
    4919     4681     4682 1
    4920     4681     4733 1
    4921     4681     4734 1
    4922     4682     4683 1
    4923     4682     4735 1
    4924     4682     4736 1
    4925     4683     4684 1
    4926     4683     4737 1
    4927     4683     4738 1
    4928     4684     4739 1
    4929     4684     4740 1
    4930     4684     4741 1
    4931     4685     4686 1
    4932     4685     4742 1
    4933     4685     4743 1
    4934     4686     4687 1
    4935     4686     4744 1
    4936     4686     4745 1
    4937     4687     4688 1
    4938     4687     4746 1
    4939     4687     4747 1
    4940     4688     4689 1
    4941     4688     4748 1
    4942     4688     4749 1
    4943     4689     4690 1
    4944     4689     4750 1
    4945     4689     4751 1
    4946     4690     4691 1
    4947     4690     4752 1
    4948     4690     4753 1
    4949     4691     4692 1
    4950     4691     4754 1
    4951     4691     4755 1
    4952     4692     4756 1
    4953     4692     4757 1
    4954     4692     4758 1
    4955     4759     4760 1
    4956     4759     4766 1
    4957     4759     4798 1
    4958     4760     4761 1
    4959     4760     4764 1
    4960     4761     4762 1
    4961     4761     4765 1
    4962     4762     4763 1
    4963     4763     4764 1
    4964     4763     4774 1
    4965     4764     4770 1
    4966     4765     4766 1
    4967     4765     4769 1
    4968     4766     4767 1
    4969     4767     4768 1
    4970     4767     4771 1
    4971     4768     4769 1
    4972     4772     4773 1
    4973     4772     4780 1
    4974     4773     4774 1
    4975     4773     4781 1
    4976     4774     4775 1
    4977     4775     4776 1
    4978     4775     4779 1
    4979     4776     4777 1
    4980     4777     4778 1
    4981     4778     4779 1
    4982     4779     4780 1
    4983     4780     4890 1
    4984     4782     4783 1
    4985     4782     4815 1
    4986     4782     4816 1
    4987     4782     4817 1
    4988     4783     4784 1
    4989     4783     4818 1
    4990     4783     4819 1
    4991     4784     4785 1
    4992     4784     4820 1
    4993     4784     4821 1
    4994     4785     4786 1
    4995     4785     4822 1
    4996     4785     4823 1
    4997     4786     4787 1
    4998     4786     4824 1
    4999     4786     4825 1
    5000     4787     4788 1
    5001     4787     4826 1
    5002     4787     4827 1
    5003     4788     4789 1
    5004     4788     4828 1
    5005     4788     4829 1
    5006     4789     4790 1
    5007     4789     4830 1
    5008     4789     4831 1
    5009     4790     4791 1
    5010     4790     4797 1
    5011     4790     4832 1
    5012     4791     4792 1
    5013     4791     4833 1
    5014     4791     4834 1
    5015     4792     4793 1
    5016     4792     4835 1
    5017     4792     4836 1
    5018     4793     4794 1
    5019     4793     4837 1
    5020     4793     4838 1
    5021     4794     4795 1
    5022     4794     4839 1
    5023     4794     4840 1
    5024     4795     4796 1
    5025     4795     4841 1
    5026     4795     4842 1
    5027     4796     4843 1
    5028     4796     4844 1
    5029     4796     4845 1
    5030     4797     4798 1
    5031     4797     4846 1
    5032     4797     4847 1
    5033     4798     4799 1
    5034     4799     4800 1
    5035     4799     4848 1
    5036     4799     4849 1
    5037     4800     4801 1
    5038     4800     4807 1
    5039     4800     4850 1
    5040     4801     4802 1
    5041     4801     4851 1
    5042     4801     4852 1
    5043     4802     4803 1
    5044     4802     4853 1
    5045     4802     4854 1
    5046     4803     4804 1
    5047     4803     4855 1
    5048     4803     4856 1
    5049     4804     4805 1
    5050     4804     4857 1
    5051     4804     4858 1
    5052     4805     4806 1
    5053     4805     4859 1
    5054     4805     4860 1
    5055     4806     4861 1
    5056     4806     4862 1
    5057     4806     4863 1
    5058     4807     4808 1
    5059     4807     4864 1
    5060     4807     4865 1
    5061     4808     4809 1
    5062     4808     4866 1
    5063     4808     4867 1
    5064     4809     4810 1
    5065     4809     4868 1
    5066     4809     4869 1
    5067     4810     4811 1
    5068     4810     4870 1
    5069     4810     4871 1
    5070     4811     4812 1
    5071     4811     4872 1
    5072     4811     4873 1
    5073     4812     4813 1
    5074     4812     4874 1
    5075     4812     4875 1
    5076     4813     4814 1
    5077     4813     4876 1
    5078     4813     4877 1
    5079     4814     4878 1
    5080     4814     4879 1
    5081     4814     4880 1
    5082     4881     4882 1
    5083     4881     4888 1
    5084     4881     4920 1
    5085     4882     4883 1
    5086     4882     4886 1
    5087     4883     4884 1
    5088     4883     4887 1
    5089     4884     4885 1
    5090     4885     4886 1
    5091     4885     4896 1
    5092     4886     4892 1
    5093     4887     4888 1
    5094     4887     4891 1
    5095     4888     4889 1
    5096     4889     4890 1
    5097     4889     4893 1
    5098     4890     4891 1
    5099     4894     4895 1
    5100     4894     4902 1
    5101     4895     4896 1
    5102     4895     4903 1
    5103     4896     4897 1
    5104     4897     4898 1
    5105     4897     4901 1
    5106     4898     4899 1
    5107     4899     4900 1
    5108     4900     4901 1
    5109     4901     4902 1
    5110     4902     5012 1
    5111     4904     4905 1
    5112     4904     4937 1
    5113     4904     4938 1
    5114     4904     4939 1
    5115     4905     4906 1
    5116     4905     4940 1
    5117     4905     4941 1
    5118     4906     4907 1
    5119     4906     4942 1
    5120     4906     4943 1
    5121     4907     4908 1
    5122     4907     4944 1
    5123     4907     4945 1
    5124     4908     4909 1
    5125     4908     4946 1
    5126     4908     4947 1
    5127     4909     4910 1
    5128     4909     4948 1
    5129     4909     4949 1
    5130     4910     4911 1
    5131     4910     4950 1
    5132     4910     4951 1
    5133     4911     4912 1
    5134     4911     4952 1
    5135     4911     4953 1
    5136     4912     4913 1
    5137     4912     4919 1
    5138     4912     4954 1
    5139     4913     4914 1
    5140     4913     4955 1
    5141     4913     4956 1
    5142     4914     4915 1
    5143     4914     4957 1
    5144     4914     4958 1
    5145     4915     4916 1
    5146     4915     4959 1
    5147     4915     4960 1
    5148     4916     4917 1
    5149     4916     4961 1
    5150     4916     4962 1
    5151     4917     4918 1
    5152     4917     4963 1
    5153     4917     4964 1
    5154     4918     4965 1
    5155     4918     4966 1
    5156     4918     4967 1
    5157     4919     4920 1
    5158     4919     4968 1
    5159     4919     4969 1
    5160     4920     4921 1
    5161     4921     4922 1
    5162     4921     4970 1
    5163     4921     4971 1
    5164     4922     4923 1
    5165     4922     4929 1
    5166     4922     4972 1
    5167     4923     4924 1
    5168     4923     4973 1
    5169     4923     4974 1
    5170     4924     4925 1
    5171     4924     4975 1
    5172     4924     4976 1
    5173     4925     4926 1
    5174     4925     4977 1
    5175     4925     4978 1
    5176     4926     4927 1
    5177     4926     4979 1
    5178     4926     4980 1
    5179     4927     4928 1
    5180     4927     4981 1
    5181     4927     4982 1
    5182     4928     4983 1
    5183     4928     4984 1
    5184     4928     4985 1
    5185     4929     4930 1
    5186     4929     4986 1
    5187     4929     4987 1
    5188     4930     4931 1
    5189     4930     4988 1
    5190     4930     4989 1
    5191     4931     4932 1
    5192     4931     4990 1
    5193     4931     4991 1
    5194     4932     4933 1
    5195     4932     4992 1
    5196     4932     4993 1
    5197     4933     4934 1
    5198     4933     4994 1
    5199     4933     4995 1
    5200     4934     4935 1
    5201     4934     4996 1
    5202     4934     4997 1
    5203     4935     4936 1
    5204     4935     4998 1
    5205     4935     4999 1
    5206     4936     5000 1
    5207     4936     5001 1
    5208     4936     5002 1
    5209     5003     5004 1
    5210     5003     5010 1
    5211     5003     5042 1
    5212     5004     5005 1
    5213     5004     5008 1
    5214     5005     5006 1
    5215     5005     5009 1
    5216     5006     5007 1
    5217     5007     5008 1
    5218     5007     5018 1
    5219     5008     5014 1
    5220     5009     5010 1
    5221     5009     5013 1
    5222     5010     5011 1
    5223     5011     5012 1
    5224     5011     5015 1
    5225     5012     5013 1
    5226     5016     5017 1
    5227     5016     5024 1
    5228     5017     5018 1
    5229     5017     5025 1
    5230     5018     5019 1
    5231     5019     5020 1
    5232     5019     5023 1
    5233     5020     5021 1
    5234     5021     5022 1
    5235     5022     5023 1
    5236     5023     5024 1
    5237     5024     5134 1
    5238     5026     5027 1
    5239     5026     5059 1
    5240     5026     5060 1
    5241     5026     5061 1
    5242     5027     5028 1
    5243     5027     5062 1
    5244     5027     5063 1
    5245     5028     5029 1
    5246     5028     5064 1
    5247     5028     5065 1
    5248     5029     5030 1
    5249     5029     5066 1
    5250     5029     5067 1
    5251     5030     5031 1
    5252     5030     5068 1
    5253     5030     5069 1
    5254     5031     5032 1
    5255     5031     5070 1
    5256     5031     5071 1
    5257     5032     5033 1
    5258     5032     5072 1
    5259     5032     5073 1
    5260     5033     5034 1
    5261     5033     5074 1
    5262     5033     5075 1
    5263     5034     5035 1
    5264     5034     5041 1
    5265     5034     5076 1
    5266     5035     5036 1
    5267     5035     5077 1
    5268     5035     5078 1
    5269     5036     5037 1
    5270     5036     5079 1
    5271     5036     5080 1
    5272     5037     5038 1
    5273     5037     5081 1
    5274     5037     5082 1
    5275     5038     5039 1
    5276     5038     5083 1
    5277     5038     5084 1
    5278     5039     5040 1
    5279     5039     5085 1
    5280     5039     5086 1
    5281     5040     5087 1
    5282     5040     5088 1
    5283     5040     5089 1
    5284     5041     5042 1
    5285     5041     5090 1
    5286     5041     5091 1
    5287     5042     5043 1
    5288     5043     5044 1
    5289     5043     5092 1
    5290     5043     5093 1
    5291     5044     5045 1
    5292     5044     5051 1
    5293     5044     5094 1
    5294     5045     5046 1
    5295     5045     5095 1
    5296     5045     5096 1
    5297     5046     5047 1
    5298     5046     5097 1
    5299     5046     5098 1
    5300     5047     5048 1
    5301     5047     5099 1
    5302     5047     5100 1
    5303     5048     5049 1
    5304     5048     5101 1
    5305     5048     5102 1
    5306     5049     5050 1
    5307     5049     5103 1
    5308     5049     5104 1
    5309     5050     5105 1
    5310     5050     5106 1
    5311     5050     5107 1
    5312     5051     5052 1
    5313     5051     5108 1
    5314     5051     5109 1
    5315     5052     5053 1
    5316     5052     5110 1
    5317     5052     5111 1
    5318     5053     5054 1
    5319     5053     5112 1
    5320     5053     5113 1
    5321     5054     5055 1
    5322     5054     5114 1
    5323     5054     5115 1
    5324     5055     5056 1
    5325     5055     5116 1
    5326     5055     5117 1
    5327     5056     5057 1
    5328     5056     5118 1
    5329     5056     5119 1
    5330     5057     5058 1
    5331     5057     5120 1
    5332     5057     5121 1
    5333     5058     5122 1
    5334     5058     5123 1
    5335     5058     5124 1
    5336     5125     5126 1
    5337     5125     5132 1
    5338     5125     5164 1
    5339     5126     5127 1
    5340     5126     5130 1
    5341     5127     5128 1
    5342     5127     5131 1
    5343     5128     5129 1
    5344     5129     5130 1
    5345     5129     5140 1
    5346     5130     5136 1
    5347     5131     5132 1
    5348     5131     5135 1
    5349     5132     5133 1
    5350     5133     5134 1
    5351     5133     5137 1
    5352     5134     5135 1
    5353     5138     5139 1
    5354     5138     5146 1
    5355     5139     5140 1
    5356     5139     5147 1
    5357     5140     5141 1
    5358     5141     5142 1
    5359     5141     5145 1
    5360     5142     5143 1
    5361     5143     5144 1
    5362     5144     5145 1
    5363     5145     5146 1
    5364     5146     5256 1
    5365     5148     5149 1
    5366     5148     5181 1
    5367     5148     5182 1
    5368     5148     5183 1
    5369     5149     5150 1
    5370     5149     5184 1
    5371     5149     5185 1
    5372     5150     5151 1
    5373     5150     5186 1
    5374     5150     5187 1
    5375     5151     5152 1
    5376     5151     5188 1
    5377     5151     5189 1
    5378     5152     5153 1
    5379     5152     5190 1
    5380     5152     5191 1
    5381     5153     5154 1
    5382     5153     5192 1
    5383     5153     5193 1
    5384     5154     5155 1
    5385     5154     5194 1
    5386     5154     5195 1
    5387     5155     5156 1
    5388     5155     5196 1
    5389     5155     5197 1
    5390     5156     5157 1
    5391     5156     5163 1
    5392     5156     5198 1
    5393     5157     5158 1
    5394     5157     5199 1
    5395     5157     5200 1
    5396     5158     5159 1
    5397     5158     5201 1
    5398     5158     5202 1
    5399     5159     5160 1
    5400     5159     5203 1
    5401     5159     5204 1
    5402     5160     5161 1
    5403     5160     5205 1
    5404     5160     5206 1
    5405     5161     5162 1
    5406     5161     5207 1
    5407     5161     5208 1
    5408     5162     5209 1
    5409     5162     5210 1
    5410     5162     5211 1
    5411     5163     5164 1
    5412     5163     5212 1
    5413     5163     5213 1
    5414     5164     5165 1
    5415     5165     5166 1
    5416     5165     5214 1
    5417     5165     5215 1
    5418     5166     5167 1
    5419     5166     5173 1
    5420     5166     5216 1
    5421     5167     5168 1
    5422     5167     5217 1
    5423     5167     5218 1
    5424     5168     5169 1
    5425     5168     5219 1
    5426     5168     5220 1
    5427     5169     5170 1
    5428     5169     5221 1
    5429     5169     5222 1
    5430     5170     5171 1
    5431     5170     5223 1
    5432     5170     5224 1
    5433     5171     5172 1
    5434     5171     5225 1
    5435     5171     5226 1
    5436     5172     5227 1
    5437     5172     5228 1
    5438     5172     5229 1
    5439     5173     5174 1
    5440     5173     5230 1
    5441     5173     5231 1
    5442     5174     5175 1
    5443     5174     5232 1
    5444     5174     5233 1
    5445     5175     5176 1
    5446     5175     5234 1
    5447     5175     5235 1
    5448     5176     5177 1
    5449     5176     5236 1
    5450     5176     5237 1
    5451     5177     5178 1
    5452     5177     5238 1
    5453     5177     5239 1
    5454     5178     5179 1
    5455     5178     5240 1
    5456     5178     5241 1
    5457     5179     5180 1
    5458     5179     5242 1
    5459     5179     5243 1
    5460     5180     5244 1
    5461     5180     5245 1
    5462     5180     5246 1
    5463     5247     5248 1
    5464     5247     5254 1
    5465     5247     5286 1
    5466     5248     5249 1
    5467     5248     5252 1
    5468     5249     5250 1
    5469     5249     5253 1
    5470     5250     5251 1
    5471     5251     5252 1
    5472     5251     5262 1
    5473     5252     5258 1
    5474     5253     5254 1
    5475     5253     5257 1
    5476     5254     5255 1
    5477     5255     5256 1
    5478     5255     5259 1
    5479     5256     5257 1
    5480     5260     5261 1
    5481     5260     5268 1
    5482     5261     5262 1
    5483     5261     5269 1
    5484     5262     5263 1
    5485     5263     5264 1
    5486     5263     5267 1
    5487     5264     5265 1
    5488     5265     5266 1
    5489     5266     5267 1
    5490     5267     5268 1
    5491     5268     5378 1
    5492     5270     5271 1
    5493     5270     5303 1
    5494     5270     5304 1
    5495     5270     5305 1
    5496     5271     5272 1
    5497     5271     5306 1
    5498     5271     5307 1
    5499     5272     5273 1
    5500     5272     5308 1
    5501     5272     5309 1
    5502     5273     5274 1
    5503     5273     5310 1
    5504     5273     5311 1
    5505     5274     5275 1
    5506     5274     5312 1
    5507     5274     5313 1
    5508     5275     5276 1
    5509     5275     5314 1
    5510     5275     5315 1
    5511     5276     5277 1
    5512     5276     5316 1
    5513     5276     5317 1
    5514     5277     5278 1
    5515     5277     5318 1
    5516     5277     5319 1
    5517     5278     5279 1
    5518     5278     5285 1
    5519     5278     5320 1
    5520     5279     5280 1
    5521     5279     5321 1
    5522     5279     5322 1
    5523     5280     5281 1
    5524     5280     5323 1
    5525     5280     5324 1
    5526     5281     5282 1
    5527     5281     5325 1
    5528     5281     5326 1
    5529     5282     5283 1
    5530     5282     5327 1
    5531     5282     5328 1
    5532     5283     5284 1
    5533     5283     5329 1
    5534     5283     5330 1
    5535     5284     5331 1
    5536     5284     5332 1
    5537     5284     5333 1
    5538     5285     5286 1
    5539     5285     5334 1
    5540     5285     5335 1
    5541     5286     5287 1
    5542     5287     5288 1
    5543     5287     5336 1
    5544     5287     5337 1
    5545     5288     5289 1
    5546     5288     5295 1
    5547     5288     5338 1
    5548     5289     5290 1
    5549     5289     5339 1
    5550     5289     5340 1
    5551     5290     5291 1
    5552     5290     5341 1
    5553     5290     5342 1
    5554     5291     5292 1
    5555     5291     5343 1
    5556     5291     5344 1
    5557     5292     5293 1
    5558     5292     5345 1
    5559     5292     5346 1
    5560     5293     5294 1
    5561     5293     5347 1
    5562     5293     5348 1
    5563     5294     5349 1
    5564     5294     5350 1
    5565     5294     5351 1
    5566     5295     5296 1
    5567     5295     5352 1
    5568     5295     5353 1
    5569     5296     5297 1
    5570     5296     5354 1
    5571     5296     5355 1
    5572     5297     5298 1
    5573     5297     5356 1
    5574     5297     5357 1
    5575     5298     5299 1
    5576     5298     5358 1
    5577     5298     5359 1
    5578     5299     5300 1
    5579     5299     5360 1
    5580     5299     5361 1
    5581     5300     5301 1
    5582     5300     5362 1
    5583     5300     5363 1
    5584     5301     5302 1
    5585     5301     5364 1
    5586     5301     5365 1
    5587     5302     5366 1
    5588     5302     5367 1
    5589     5302     5368 1
    5590     5369     5370 1
    5591     5369     5376 1
    5592     5369     5408 1
    5593     5370     5371 1
    5594     5370     5374 1
    5595     5371     5372 1
    5596     5371     5375 1
    5597     5372     5373 1
    5598     5373     5374 1
    5599     5373     5384 1
    5600     5374     5380 1
    5601     5375     5376 1
    5602     5375     5379 1
    5603     5376     5377 1
    5604     5377     5378 1
    5605     5377     5381 1
    5606     5378     5379 1
    5607     5382     5383 1
    5608     5382     5390 1
    5609     5383     5384 1
    5610     5383     5391 1
    5611     5384     5385 1
    5612     5385     5386 1
    5613     5385     5389 1
    5614     5386     5387 1
    5615     5387     5388 1
    5616     5388     5389 1
    5617     5389     5390 1
    5618     5390     5500 1
    5619     5392     5393 1
    5620     5392     5425 1
    5621     5392     5426 1
    5622     5392     5427 1
    5623     5393     5394 1
    5624     5393     5428 1
    5625     5393     5429 1
    5626     5394     5395 1
    5627     5394     5430 1
    5628     5394     5431 1
    5629     5395     5396 1
    5630     5395     5432 1
    5631     5395     5433 1
    5632     5396     5397 1
    5633     5396     5434 1
    5634     5396     5435 1
    5635     5397     5398 1
    5636     5397     5436 1
    5637     5397     5437 1
    5638     5398     5399 1
    5639     5398     5438 1
    5640     5398     5439 1
    5641     5399     5400 1
    5642     5399     5440 1
    5643     5399     5441 1
    5644     5400     5401 1
    5645     5400     5407 1
    5646     5400     5442 1
    5647     5401     5402 1
    5648     5401     5443 1
    5649     5401     5444 1
    5650     5402     5403 1
    5651     5402     5445 1
    5652     5402     5446 1
    5653     5403     5404 1
    5654     5403     5447 1
    5655     5403     5448 1
    5656     5404     5405 1
    5657     5404     5449 1
    5658     5404     5450 1
    5659     5405     5406 1
    5660     5405     5451 1
    5661     5405     5452 1
    5662     5406     5453 1
    5663     5406     5454 1
    5664     5406     5455 1
    5665     5407     5408 1
    5666     5407     5456 1
    5667     5407     5457 1
    5668     5408     5409 1
    5669     5409     5410 1
    5670     5409     5458 1
    5671     5409     5459 1
    5672     5410     5411 1
    5673     5410     5417 1
    5674     5410     5460 1
    5675     5411     5412 1
    5676     5411     5461 1
    5677     5411     5462 1
    5678     5412     5413 1
    5679     5412     5463 1
    5680     5412     5464 1
    5681     5413     5414 1
    5682     5413     5465 1
    5683     5413     5466 1
    5684     5414     5415 1
    5685     5414     5467 1
    5686     5414     5468 1
    5687     5415     5416 1
    5688     5415     5469 1
    5689     5415     5470 1
    5690     5416     5471 1
    5691     5416     5472 1
    5692     5416     5473 1
    5693     5417     5418 1
    5694     5417     5474 1
    5695     5417     5475 1
    5696     5418     5419 1
    5697     5418     5476 1
    5698     5418     5477 1
    5699     5419     5420 1
    5700     5419     5478 1
    5701     5419     5479 1
    5702     5420     5421 1
    5703     5420     5480 1
    5704     5420     5481 1
    5705     5421     5422 1
    5706     5421     5482 1
    5707     5421     5483 1
    5708     5422     5423 1
    5709     5422     5484 1
    5710     5422     5485 1
    5711     5423     5424 1
    5712     5423     5486 1
    5713     5423     5487 1
    5714     5424     5488 1
    5715     5424     5489 1
    5716     5424     5490 1
    5717     5491     5492 1
    5718     5491     5498 1
    5719     5491     5530 1
    5720     5492     5493 1
    5721     5492     5496 1
    5722     5493     5494 1
    5723     5493     5497 1
    5724     5494     5495 1
    5725     5495     5496 1
    5726     5495     5506 1
    5727     5496     5502 1
    5728     5497     5498 1
    5729     5497     5501 1
    5730     5498     5499 1
    5731     5499     5500 1
    5732     5499     5503 1
    5733     5500     5501 1
    5734     5504     5505 1
    5735     5504     5512 1
    5736     5505     5506 1
    5737     5505     5513 1
    5738     5506     5507 1
    5739     5507     5508 1
    5740     5507     5511 1
    5741     5508     5509 1
    5742     5509     5510 1
    5743     5510     5511 1
    5744     5511     5512 1
    5745     5512     5622 1
    5746     5514     5515 1
    5747     5514     5547 1
    5748     5514     5548 1
    5749     5514     5549 1
    5750     5515     5516 1
    5751     5515     5550 1
    5752     5515     5551 1
    5753     5516     5517 1
    5754     5516     5552 1
    5755     5516     5553 1
    5756     5517     5518 1
    5757     5517     5554 1
    5758     5517     5555 1
    5759     5518     5519 1
    5760     5518     5556 1
    5761     5518     5557 1
    5762     5519     5520 1
    5763     5519     5558 1
    5764     5519     5559 1
    5765     5520     5521 1
    5766     5520     5560 1
    5767     5520     5561 1
    5768     5521     5522 1
    5769     5521     5562 1
    5770     5521     5563 1
    5771     5522     5523 1
    5772     5522     5529 1
    5773     5522     5564 1
    5774     5523     5524 1
    5775     5523     5565 1
    5776     5523     5566 1
    5777     5524     5525 1
    5778     5524     5567 1
    5779     5524     5568 1
    5780     5525     5526 1
    5781     5525     5569 1
    5782     5525     5570 1
    5783     5526     5527 1
    5784     5526     5571 1
    5785     5526     5572 1
    5786     5527     5528 1
    5787     5527     5573 1
    5788     5527     5574 1
    5789     5528     5575 1
    5790     5528     5576 1
    5791     5528     5577 1
    5792     5529     5530 1
    5793     5529     5578 1
    5794     5529     5579 1
    5795     5530     5531 1
    5796     5531     5532 1
    5797     5531     5580 1
    5798     5531     5581 1
    5799     5532     5533 1
    5800     5532     5539 1
    5801     5532     5582 1
    5802     5533     5534 1
    5803     5533     5583 1
    5804     5533     5584 1
    5805     5534     5535 1
    5806     5534     5585 1
    5807     5534     5586 1
    5808     5535     5536 1
    5809     5535     5587 1
    5810     5535     5588 1
    5811     5536     5537 1
    5812     5536     5589 1
    5813     5536     5590 1
    5814     5537     5538 1
    5815     5537     5591 1
    5816     5537     5592 1
    5817     5538     5593 1
    5818     5538     5594 1
    5819     5538     5595 1
    5820     5539     5540 1
    5821     5539     5596 1
    5822     5539     5597 1
    5823     5540     5541 1
    5824     5540     5598 1
    5825     5540     5599 1
    5826     5541     5542 1
    5827     5541     5600 1
    5828     5541     5601 1
    5829     5542     5543 1
    5830     5542     5602 1
    5831     5542     5603 1
    5832     5543     5544 1
    5833     5543     5604 1
    5834     5543     5605 1
    5835     5544     5545 1
    5836     5544     5606 1
    5837     5544     5607 1
    5838     5545     5546 1
    5839     5545     5608 1
    5840     5545     5609 1
    5841     5546     5610 1
    5842     5546     5611 1
    5843     5546     5612 1
    5844     5613     5614 1
    5845     5613     5620 1
    5846     5613     5652 1
    5847     5614     5615 1
    5848     5614     5618 1
    5849     5615     5616 1
    5850     5615     5619 1
    5851     5616     5617 1
    5852     5617     5618 1
    5853     5617     5628 1
    5854     5618     5624 1
    5855     5619     5620 1
    5856     5619     5623 1
    5857     5620     5621 1
    5858     5621     5622 1
    5859     5621     5625 1
    5860     5622     5623 1
    5861     5626     5627 1
    5862     5626     5634 1
    5863     5627     5628 1
    5864     5627     5635 1
    5865     5628     5629 1
    5866     5629     5630 1
    5867     5629     5633 1
    5868     5630     5631 1
    5869     5631     5632 1
    5870     5632     5633 1
    5871     5633     5634 1
    5872     5634     5744 1
    5873     5636     5637 1
    5874     5636     5669 1
    5875     5636     5670 1
    5876     5636     5671 1
    5877     5637     5638 1
    5878     5637     5672 1
    5879     5637     5673 1
    5880     5638     5639 1
    5881     5638     5674 1
    5882     5638     5675 1
    5883     5639     5640 1
    5884     5639     5676 1
    5885     5639     5677 1
    5886     5640     5641 1
    5887     5640     5678 1
    5888     5640     5679 1
    5889     5641     5642 1
    5890     5641     5680 1
    5891     5641     5681 1
    5892     5642     5643 1
    5893     5642     5682 1
    5894     5642     5683 1
    5895     5643     5644 1
    5896     5643     5684 1
    5897     5643     5685 1
    5898     5644     5645 1
    5899     5644     5651 1
    5900     5644     5686 1
    5901     5645     5646 1
    5902     5645     5687 1
    5903     5645     5688 1
    5904     5646     5647 1
    5905     5646     5689 1
    5906     5646     5690 1
    5907     5647     5648 1
    5908     5647     5691 1
    5909     5647     5692 1
    5910     5648     5649 1
    5911     5648     5693 1
    5912     5648     5694 1
    5913     5649     5650 1
    5914     5649     5695 1
    5915     5649     5696 1
    5916     5650     5697 1
    5917     5650     5698 1
    5918     5650     5699 1
    5919     5651     5652 1
    5920     5651     5700 1
    5921     5651     5701 1
    5922     5652     5653 1
    5923     5653     5654 1
    5924     5653     5702 1
    5925     5653     5703 1
    5926     5654     5655 1
    5927     5654     5661 1
    5928     5654     5704 1
    5929     5655     5656 1
    5930     5655     5705 1
    5931     5655     5706 1
    5932     5656     5657 1
    5933     5656     5707 1
    5934     5656     5708 1
    5935     5657     5658 1
    5936     5657     5709 1
    5937     5657     5710 1
    5938     5658     5659 1
    5939     5658     5711 1
    5940     5658     5712 1
    5941     5659     5660 1
    5942     5659     5713 1
    5943     5659     5714 1
    5944     5660     5715 1
    5945     5660     5716 1
    5946     5660     5717 1
    5947     5661     5662 1
    5948     5661     5718 1
    5949     5661     5719 1
    5950     5662     5663 1
    5951     5662     5720 1
    5952     5662     5721 1
    5953     5663     5664 1
    5954     5663     5722 1
    5955     5663     5723 1
    5956     5664     5665 1
    5957     5664     5724 1
    5958     5664     5725 1
    5959     5665     5666 1
    5960     5665     5726 1
    5961     5665     5727 1
    5962     5666     5667 1
    5963     5666     5728 1
    5964     5666     5729 1
    5965     5667     5668 1
    5966     5667     5730 1
    5967     5667     5731 1
    5968     5668     5732 1
    5969     5668     5733 1
    5970     5668     5734 1
    5971     5735     5736 1
    5972     5735     5742 1
    5973     5735     5774 1
    5974     5736     5737 1
    5975     5736     5740 1
    5976     5737     5738 1
    5977     5737     5741 1
    5978     5738     5739 1
    5979     5739     5740 1
    5980     5739     5750 1
    5981     5740     5746 1
    5982     5741     5742 1
    5983     5741     5745 1
    5984     5742     5743 1
    5985     5743     5744 1
    5986     5743     5747 1
    5987     5744     5745 1
    5988     5748     5749 1
    5989     5748     5756 1
    5990     5749     5750 1
    5991     5749     5757 1
    5992     5750     5751 1
    5993     5751     5752 1
    5994     5751     5755 1
    5995     5752     5753 1
    5996     5753     5754 1
    5997     5754     5755 1
    5998     5755     5756 1
    5999     5756     5866 1
    6000     5758     5759 1
    6001     5758     5791 1
    6002     5758     5792 1
    6003     5758     5793 1
    6004     5759     5760 1
    6005     5759     5794 1
    6006     5759     5795 1
    6007     5760     5761 1
    6008     5760     5796 1
    6009     5760     5797 1
    6010     5761     5762 1
    6011     5761     5798 1
    6012     5761     5799 1
    6013     5762     5763 1
    6014     5762     5800 1
    6015     5762     5801 1
    6016     5763     5764 1
    6017     5763     5802 1
    6018     5763     5803 1
    6019     5764     5765 1
    6020     5764     5804 1
    6021     5764     5805 1
    6022     5765     5766 1
    6023     5765     5806 1
    6024     5765     5807 1
    6025     5766     5767 1
    6026     5766     5773 1
    6027     5766     5808 1
    6028     5767     5768 1
    6029     5767     5809 1
    6030     5767     5810 1
    6031     5768     5769 1
    6032     5768     5811 1
    6033     5768     5812 1
    6034     5769     5770 1
    6035     5769     5813 1
    6036     5769     5814 1
    6037     5770     5771 1
    6038     5770     5815 1
    6039     5770     5816 1
    6040     5771     5772 1
    6041     5771     5817 1
    6042     5771     5818 1
    6043     5772     5819 1
    6044     5772     5820 1
    6045     5772     5821 1
    6046     5773     5774 1
    6047     5773     5822 1
    6048     5773     5823 1
    6049     5774     5775 1
    6050     5775     5776 1
    6051     5775     5824 1
    6052     5775     5825 1
    6053     5776     5777 1
    6054     5776     5783 1
    6055     5776     5826 1
    6056     5777     5778 1
    6057     5777     5827 1
    6058     5777     5828 1
    6059     5778     5779 1
    6060     5778     5829 1
    6061     5778     5830 1
    6062     5779     5780 1
    6063     5779     5831 1
    6064     5779     5832 1
    6065     5780     5781 1
    6066     5780     5833 1
    6067     5780     5834 1
    6068     5781     5782 1
    6069     5781     5835 1
    6070     5781     5836 1
    6071     5782     5837 1
    6072     5782     5838 1
    6073     5782     5839 1
    6074     5783     5784 1
    6075     5783     5840 1
    6076     5783     5841 1
    6077     5784     5785 1
    6078     5784     5842 1
    6079     5784     5843 1
    6080     5785     5786 1
    6081     5785     5844 1
    6082     5785     5845 1
    6083     5786     5787 1
    6084     5786     5846 1
    6085     5786     5847 1
    6086     5787     5788 1
    6087     5787     5848 1
    6088     5787     5849 1
    6089     5788     5789 1
    6090     5788     5850 1
    6091     5788     5851 1
    6092     5789     5790 1
    6093     5789     5852 1
    6094     5789     5853 1
    6095     5790     5854 1
    6096     5790     5855 1
    6097     5790     5856 1
    6098     5857     5858 1
    6099     5857     5864 1
    6100     5857     5896 1
    6101     5858     5859 1
    6102     5858     5862 1
    6103     5859     5860 1
    6104     5859     5863 1
    6105     5860     5861 1
    6106     5861     5862 1
    6107     5861     5872 1
    6108     5862     5868 1
    6109     5863     5864 1
    6110     5863     5867 1
    6111     5864     5865 1
    6112     5865     5866 1
    6113     5865     5869 1
    6114     5866     5867 1
    6115     5870     5871 1
    6116     5870     5878 1
    6117     5871     5872 1
    6118     5871     5879 1
    6119     5872     5873 1
    6120     5873     5874 1
    6121     5873     5877 1
    6122     5874     5875 1
    6123     5875     5876 1
    6124     5876     5877 1
    6125     5877     5878 1
    6126     5878     5988 1
    6127     5880     5881 1
    6128     5880     5913 1
    6129     5880     5914 1
    6130     5880     5915 1
    6131     5881     5882 1
    6132     5881     5916 1
    6133     5881     5917 1
    6134     5882     5883 1
    6135     5882     5918 1
    6136     5882     5919 1
    6137     5883     5884 1
    6138     5883     5920 1
    6139     5883     5921 1
    6140     5884     5885 1
    6141     5884     5922 1
    6142     5884     5923 1
    6143     5885     5886 1
    6144     5885     5924 1
    6145     5885     5925 1
    6146     5886     5887 1
    6147     5886     5926 1
    6148     5886     5927 1
    6149     5887     5888 1
    6150     5887     5928 1
    6151     5887     5929 1
    6152     5888     5889 1
    6153     5888     5895 1
    6154     5888     5930 1
    6155     5889     5890 1
    6156     5889     5931 1
    6157     5889     5932 1
    6158     5890     5891 1
    6159     5890     5933 1
    6160     5890     5934 1
    6161     5891     5892 1
    6162     5891     5935 1
    6163     5891     5936 1
    6164     5892     5893 1
    6165     5892     5937 1
    6166     5892     5938 1
    6167     5893     5894 1
    6168     5893     5939 1
    6169     5893     5940 1
    6170     5894     5941 1
    6171     5894     5942 1
    6172     5894     5943 1
    6173     5895     5896 1
    6174     5895     5944 1
    6175     5895     5945 1
    6176     5896     5897 1
    6177     5897     5898 1
    6178     5897     5946 1
    6179     5897     5947 1
    6180     5898     5899 1
    6181     5898     5905 1
    6182     5898     5948 1
    6183     5899     5900 1
    6184     5899     5949 1
    6185     5899     5950 1
    6186     5900     5901 1
    6187     5900     5951 1
    6188     5900     5952 1
    6189     5901     5902 1
    6190     5901     5953 1
    6191     5901     5954 1
    6192     5902     5903 1
    6193     5902     5955 1
    6194     5902     5956 1
    6195     5903     5904 1
    6196     5903     5957 1
    6197     5903     5958 1
    6198     5904     5959 1
    6199     5904     5960 1
    6200     5904     5961 1
    6201     5905     5906 1
    6202     5905     5962 1
    6203     5905     5963 1
    6204     5906     5907 1
    6205     5906     5964 1
    6206     5906     5965 1
    6207     5907     5908 1
    6208     5907     5966 1
    6209     5907     5967 1
    6210     5908     5909 1
    6211     5908     5968 1
    6212     5908     5969 1
    6213     5909     5910 1
    6214     5909     5970 1
    6215     5909     5971 1
    6216     5910     5911 1
    6217     5910     5972 1
    6218     5910     5973 1
    6219     5911     5912 1
    6220     5911     5974 1
    6221     5911     5975 1
    6222     5912     5976 1
    6223     5912     5977 1
    6224     5912     5978 1
    6225     5979     5980 1
    6226     5979     5986 1
    6227     5979     6018 1
    6228     5980     5981 1
    6229     5980     5984 1
    6230     5981     5982 1
    6231     5981     5985 1
    6232     5982     5983 1
    6233     5983     5984 1
    6234     5983     5994 1
    6235     5984     5990 1
    6236     5985     5986 1
    6237     5985     5989 1
    6238     5986     5987 1
    6239     5987     5988 1
    6240     5987     5991 1
    6241     5988     5989 1
    6242     5992     5993 1
    6243     5992     6000 1
    6244     5993     5994 1
    6245     5993     6001 1
    6246     5994     5995 1
    6247     5995     5996 1
    6248     5995     5999 1
    6249     5996     5997 1
    6250     5997     5998 1
    6251     5998     5999 1
    6252     5999     6000 1
    6253     6000     6110 1
    6254     6002     6003 1
    6255     6002     6035 1
    6256     6002     6036 1
    6257     6002     6037 1
    6258     6003     6004 1
    6259     6003     6038 1
    6260     6003     6039 1
    6261     6004     6005 1
    6262     6004     6040 1
    6263     6004     6041 1
    6264     6005     6006 1
    6265     6005     6042 1
    6266     6005     6043 1
    6267     6006     6007 1
    6268     6006     6044 1
    6269     6006     6045 1
    6270     6007     6008 1
    6271     6007     6046 1
    6272     6007     6047 1
    6273     6008     6009 1
    6274     6008     6048 1
    6275     6008     6049 1
    6276     6009     6010 1
    6277     6009     6050 1
    6278     6009     6051 1
    6279     6010     6011 1
    6280     6010     6017 1
    6281     6010     6052 1
    6282     6011     6012 1
    6283     6011     6053 1
    6284     6011     6054 1
    6285     6012     6013 1
    6286     6012     6055 1
    6287     6012     6056 1
    6288     6013     6014 1
    6289     6013     6057 1
    6290     6013     6058 1
    6291     6014     6015 1
    6292     6014     6059 1
    6293     6014     6060 1
    6294     6015     6016 1
    6295     6015     6061 1
    6296     6015     6062 1
    6297     6016     6063 1
    6298     6016     6064 1
    6299     6016     6065 1
    6300     6017     6018 1
    6301     6017     6066 1
    6302     6017     6067 1
    6303     6018     6019 1
    6304     6019     6020 1
    6305     6019     6068 1
    6306     6019     6069 1
    6307     6020     6021 1
    6308     6020     6027 1
    6309     6020     6070 1
    6310     6021     6022 1
    6311     6021     6071 1
    6312     6021     6072 1
    6313     6022     6023 1
    6314     6022     6073 1
    6315     6022     6074 1
    6316     6023     6024 1
    6317     6023     6075 1
    6318     6023     6076 1
    6319     6024     6025 1
    6320     6024     6077 1
    6321     6024     6078 1
    6322     6025     6026 1
    6323     6025     6079 1
    6324     6025     6080 1
    6325     6026     6081 1
    6326     6026     6082 1
    6327     6026     6083 1
    6328     6027     6028 1
    6329     6027     6084 1
    6330     6027     6085 1
    6331     6028     6029 1
    6332     6028     6086 1
    6333     6028     6087 1
    6334     6029     6030 1
    6335     6029     6088 1
    6336     6029     6089 1
    6337     6030     6031 1
    6338     6030     6090 1
    6339     6030     6091 1
    6340     6031     6032 1
    6341     6031     6092 1
    6342     6031     6093 1
    6343     6032     6033 1
    6344     6032     6094 1
    6345     6032     6095 1
    6346     6033     6034 1
    6347     6033     6096 1
    6348     6033     6097 1
    6349     6034     6098 1
    6350     6034     6099 1
    6351     6034     6100 1
    6352     6101     6102 1
    6353     6101     6108 1
    6354     6101     6140 1
    6355     6102     6103 1
    6356     6102     6106 1
    6357     6103     6104 1
    6358     6103     6107 1
    6359     6104     6105 1
    6360     6105     6106 1
    6361     6105     6116 1
    6362     6106     6112 1
    6363     6107     6108 1
    6364     6107     6111 1
    6365     6108     6109 1
    6366     6109     6110 1
    6367     6109     6113 1
    6368     6110     6111 1
    6369     6114     6115 1
    6370     6114     6122 1
    6371     6115     6116 1
    6372     6115     6123 1
    6373     6116     6117 1
    6374     6117     6118 1
    6375     6117     6121 1
    6376     6118     6119 1
    6377     6119     6120 1
    6378     6120     6121 1
    6379     6121     6122 1
    6380     6122     6232 1
    6381     6124     6125 1
    6382     6124     6157 1
    6383     6124     6158 1
    6384     6124     6159 1
    6385     6125     6126 1
    6386     6125     6160 1
    6387     6125     6161 1
    6388     6126     6127 1
    6389     6126     6162 1
    6390     6126     6163 1
    6391     6127     6128 1
    6392     6127     6164 1
    6393     6127     6165 1
    6394     6128     6129 1
    6395     6128     6166 1
    6396     6128     6167 1
    6397     6129     6130 1
    6398     6129     6168 1
    6399     6129     6169 1
    6400     6130     6131 1
    6401     6130     6170 1
    6402     6130     6171 1
    6403     6131     6132 1
    6404     6131     6172 1
    6405     6131     6173 1
    6406     6132     6133 1
    6407     6132     6139 1
    6408     6132     6174 1
    6409     6133     6134 1
    6410     6133     6175 1
    6411     6133     6176 1
    6412     6134     6135 1
    6413     6134     6177 1
    6414     6134     6178 1
    6415     6135     6136 1
    6416     6135     6179 1
    6417     6135     6180 1
    6418     6136     6137 1
    6419     6136     6181 1
    6420     6136     6182 1
    6421     6137     6138 1
    6422     6137     6183 1
    6423     6137     6184 1
    6424     6138     6185 1
    6425     6138     6186 1
    6426     6138     6187 1
    6427     6139     6140 1
    6428     6139     6188 1
    6429     6139     6189 1
    6430     6140     6141 1
    6431     6141     6142 1
    6432     6141     6190 1
    6433     6141     6191 1
    6434     6142     6143 1
    6435     6142     6149 1
    6436     6142     6192 1
    6437     6143     6144 1
    6438     6143     6193 1
    6439     6143     6194 1
    6440     6144     6145 1
    6441     6144     6195 1
    6442     6144     6196 1
    6443     6145     6146 1
    6444     6145     6197 1
    6445     6145     6198 1
    6446     6146     6147 1
    6447     6146     6199 1
    6448     6146     6200 1
    6449     6147     6148 1
    6450     6147     6201 1
    6451     6147     6202 1
    6452     6148     6203 1
    6453     6148     6204 1
    6454     6148     6205 1
    6455     6149     6150 1
    6456     6149     6206 1
    6457     6149     6207 1
    6458     6150     6151 1
    6459     6150     6208 1
    6460     6150     6209 1
    6461     6151     6152 1
    6462     6151     6210 1
    6463     6151     6211 1
    6464     6152     6153 1
    6465     6152     6212 1
    6466     6152     6213 1
    6467     6153     6154 1
    6468     6153     6214 1
    6469     6153     6215 1
    6470     6154     6155 1
    6471     6154     6216 1
    6472     6154     6217 1
    6473     6155     6156 1
    6474     6155     6218 1
    6475     6155     6219 1
    6476     6156     6220 1
    6477     6156     6221 1
    6478     6156     6222 1
    6479     6223     6224 1
    6480     6223     6230 1
    6481     6223     6262 1
    6482     6224     6225 1
    6483     6224     6228 1
    6484     6225     6226 1
    6485     6225     6229 1
    6486     6226     6227 1
    6487     6227     6228 1
    6488     6227     6238 1
    6489     6228     6234 1
    6490     6229     6230 1
    6491     6229     6233 1
    6492     6230     6231 1
    6493     6231     6232 1
    6494     6231     6235 1
    6495     6232     6233 1
    6496     6236     6237 1
    6497     6236     6244 1
    6498     6237     6238 1
    6499     6237     6245 1
    6500     6238     6239 1
    6501     6239     6240 1
    6502     6239     6243 1
    6503     6240     6241 1
    6504     6241     6242 1
    6505     6242     6243 1
    6506     6243     6244 1
    6507     6244     6354 1
    6508     6246     6247 1
    6509     6246     6279 1
    6510     6246     6280 1
    6511     6246     6281 1
    6512     6247     6248 1
    6513     6247     6282 1
    6514     6247     6283 1
    6515     6248     6249 1
    6516     6248     6284 1
    6517     6248     6285 1
    6518     6249     6250 1
    6519     6249     6286 1
    6520     6249     6287 1
    6521     6250     6251 1
    6522     6250     6288 1
    6523     6250     6289 1
    6524     6251     6252 1
    6525     6251     6290 1
    6526     6251     6291 1
    6527     6252     6253 1
    6528     6252     6292 1
    6529     6252     6293 1
    6530     6253     6254 1
    6531     6253     6294 1
    6532     6253     6295 1
    6533     6254     6255 1
    6534     6254     6261 1
    6535     6254     6296 1
    6536     6255     6256 1
    6537     6255     6297 1
    6538     6255     6298 1
    6539     6256     6257 1
    6540     6256     6299 1
    6541     6256     6300 1
    6542     6257     6258 1
    6543     6257     6301 1
    6544     6257     6302 1
    6545     6258     6259 1
    6546     6258     6303 1
    6547     6258     6304 1
    6548     6259     6260 1
    6549     6259     6305 1
    6550     6259     6306 1
    6551     6260     6307 1
    6552     6260     6308 1
    6553     6260     6309 1
    6554     6261     6262 1
    6555     6261     6310 1
    6556     6261     6311 1
    6557     6262     6263 1
    6558     6263     6264 1
    6559     6263     6312 1
    6560     6263     6313 1
    6561     6264     6265 1
    6562     6264     6271 1
    6563     6264     6314 1
    6564     6265     6266 1
    6565     6265     6315 1
    6566     6265     6316 1
    6567     6266     6267 1
    6568     6266     6317 1
    6569     6266     6318 1
    6570     6267     6268 1
    6571     6267     6319 1
    6572     6267     6320 1
    6573     6268     6269 1
    6574     6268     6321 1
    6575     6268     6322 1
    6576     6269     6270 1
    6577     6269     6323 1
    6578     6269     6324 1
    6579     6270     6325 1
    6580     6270     6326 1
    6581     6270     6327 1
    6582     6271     6272 1
    6583     6271     6328 1
    6584     6271     6329 1
    6585     6272     6273 1
    6586     6272     6330 1
    6587     6272     6331 1
    6588     6273     6274 1
    6589     6273     6332 1
    6590     6273     6333 1
    6591     6274     6275 1
    6592     6274     6334 1
    6593     6274     6335 1
    6594     6275     6276 1
    6595     6275     6336 1
    6596     6275     6337 1
    6597     6276     6277 1
    6598     6276     6338 1
    6599     6276     6339 1
    6600     6277     6278 1
    6601     6277     6340 1
    6602     6277     6341 1
    6603     6278     6342 1
    6604     6278     6343 1
    6605     6278     6344 1
    6606     6345     6346 1
    6607     6345     6352 1
    6608     6345     6384 1
    6609     6346     6347 1
    6610     6346     6350 1
    6611     6347     6348 1
    6612     6347     6351 1
    6613     6348     6349 1
    6614     6349     6350 1
    6615     6349     6360 1
    6616     6350     6356 1
    6617     6351     6352 1
    6618     6351     6355 1
    6619     6352     6353 1
    6620     6353     6354 1
    6621     6353     6357 1
    6622     6354     6355 1
    6623     6358     6359 1
    6624     6358     6366 1
    6625     6359     6360 1
    6626     6359     6367 1
    6627     6360     6361 1
    6628     6361     6362 1
    6629     6361     6365 1
    6630     6362     6363 1
    6631     6363     6364 1
    6632     6364     6365 1
    6633     6365     6366 1
    6634     6366     6476 1
    6635     6368     6369 1
    6636     6368     6401 1
    6637     6368     6402 1
    6638     6368     6403 1
    6639     6369     6370 1
    6640     6369     6404 1
    6641     6369     6405 1
    6642     6370     6371 1
    6643     6370     6406 1
    6644     6370     6407 1
    6645     6371     6372 1
    6646     6371     6408 1
    6647     6371     6409 1
    6648     6372     6373 1
    6649     6372     6410 1
    6650     6372     6411 1
    6651     6373     6374 1
    6652     6373     6412 1
    6653     6373     6413 1
    6654     6374     6375 1
    6655     6374     6414 1
    6656     6374     6415 1
    6657     6375     6376 1
    6658     6375     6416 1
    6659     6375     6417 1
    6660     6376     6377 1
    6661     6376     6383 1
    6662     6376     6418 1
    6663     6377     6378 1
    6664     6377     6419 1
    6665     6377     6420 1
    6666     6378     6379 1
    6667     6378     6421 1
    6668     6378     6422 1
    6669     6379     6380 1
    6670     6379     6423 1
    6671     6379     6424 1
    6672     6380     6381 1
    6673     6380     6425 1
    6674     6380     6426 1
    6675     6381     6382 1
    6676     6381     6427 1
    6677     6381     6428 1
    6678     6382     6429 1
    6679     6382     6430 1
    6680     6382     6431 1
    6681     6383     6384 1
    6682     6383     6432 1
    6683     6383     6433 1
    6684     6384     6385 1
    6685     6385     6386 1
    6686     6385     6434 1
    6687     6385     6435 1
    6688     6386     6387 1
    6689     6386     6393 1
    6690     6386     6436 1
    6691     6387     6388 1
    6692     6387     6437 1
    6693     6387     6438 1
    6694     6388     6389 1
    6695     6388     6439 1
    6696     6388     6440 1
    6697     6389     6390 1
    6698     6389     6441 1
    6699     6389     6442 1
    6700     6390     6391 1
    6701     6390     6443 1
    6702     6390     6444 1
    6703     6391     6392 1
    6704     6391     6445 1
    6705     6391     6446 1
    6706     6392     6447 1
    6707     6392     6448 1
    6708     6392     6449 1
    6709     6393     6394 1
    6710     6393     6450 1
    6711     6393     6451 1
    6712     6394     6395 1
    6713     6394     6452 1
    6714     6394     6453 1
    6715     6395     6396 1
    6716     6395     6454 1
    6717     6395     6455 1
    6718     6396     6397 1
    6719     6396     6456 1
    6720     6396     6457 1
    6721     6397     6398 1
    6722     6397     6458 1
    6723     6397     6459 1
    6724     6398     6399 1
    6725     6398     6460 1
    6726     6398     6461 1
    6727     6399     6400 1
    6728     6399     6462 1
    6729     6399     6463 1
    6730     6400     6464 1
    6731     6400     6465 1
    6732     6400     6466 1
    6733     6467     6468 1
    6734     6467     6474 1
    6735     6467     6506 1
    6736     6468     6469 1
    6737     6468     6472 1
    6738     6469     6470 1
    6739     6469     6473 1
    6740     6470     6471 1
    6741     6471     6472 1
    6742     6471     6482 1
    6743     6472     6478 1
    6744     6473     6474 1
    6745     6473     6477 1
    6746     6474     6475 1
    6747     6475     6476 1
    6748     6475     6479 1
    6749     6476     6477 1
    6750     6480     6481 1
    6751     6480     6488 1
    6752     6481     6482 1
    6753     6481     6489 1
    6754     6482     6483 1
    6755     6483     6484 1
    6756     6483     6487 1
    6757     6484     6485 1
    6758     6485     6486 1
    6759     6486     6487 1
    6760     6487     6488 1
    6761     6488     6598 1
    6762     6490     6491 1
    6763     6490     6523 1
    6764     6490     6524 1
    6765     6490     6525 1
    6766     6491     6492 1
    6767     6491     6526 1
    6768     6491     6527 1
    6769     6492     6493 1
    6770     6492     6528 1
    6771     6492     6529 1
    6772     6493     6494 1
    6773     6493     6530 1
    6774     6493     6531 1
    6775     6494     6495 1
    6776     6494     6532 1
    6777     6494     6533 1
    6778     6495     6496 1
    6779     6495     6534 1
    6780     6495     6535 1
    6781     6496     6497 1
    6782     6496     6536 1
    6783     6496     6537 1
    6784     6497     6498 1
    6785     6497     6538 1
    6786     6497     6539 1
    6787     6498     6499 1
    6788     6498     6505 1
    6789     6498     6540 1
    6790     6499     6500 1
    6791     6499     6541 1
    6792     6499     6542 1
    6793     6500     6501 1
    6794     6500     6543 1
    6795     6500     6544 1
    6796     6501     6502 1
    6797     6501     6545 1
    6798     6501     6546 1
    6799     6502     6503 1
    6800     6502     6547 1
    6801     6502     6548 1
    6802     6503     6504 1
    6803     6503     6549 1
    6804     6503     6550 1
    6805     6504     6551 1
    6806     6504     6552 1
    6807     6504     6553 1
    6808     6505     6506 1
    6809     6505     6554 1
    6810     6505     6555 1
    6811     6506     6507 1
    6812     6507     6508 1
    6813     6507     6556 1
    6814     6507     6557 1
    6815     6508     6509 1
    6816     6508     6515 1
    6817     6508     6558 1
    6818     6509     6510 1
    6819     6509     6559 1
    6820     6509     6560 1
    6821     6510     6511 1
    6822     6510     6561 1
    6823     6510     6562 1
    6824     6511     6512 1
    6825     6511     6563 1
    6826     6511     6564 1
    6827     6512     6513 1
    6828     6512     6565 1
    6829     6512     6566 1
    6830     6513     6514 1
    6831     6513     6567 1
    6832     6513     6568 1
    6833     6514     6569 1
    6834     6514     6570 1
    6835     6514     6571 1
    6836     6515     6516 1
    6837     6515     6572 1
    6838     6515     6573 1
    6839     6516     6517 1
    6840     6516     6574 1
    6841     6516     6575 1
    6842     6517     6518 1
    6843     6517     6576 1
    6844     6517     6577 1
    6845     6518     6519 1
    6846     6518     6578 1
    6847     6518     6579 1
    6848     6519     6520 1
    6849     6519     6580 1
    6850     6519     6581 1
    6851     6520     6521 1
    6852     6520     6582 1
    6853     6520     6583 1
    6854     6521     6522 1
    6855     6521     6584 1
    6856     6521     6585 1
    6857     6522     6586 1
    6858     6522     6587 1
    6859     6522     6588 1
    6860     6589     6590 1
    6861     6589     6596 1
    6862     6589     6628 1
    6863     6590     6591 1
    6864     6590     6594 1
    6865     6591     6592 1
    6866     6591     6595 1
    6867     6592     6593 1
    6868     6593     6594 1
    6869     6593     6604 1
    6870     6594     6600 1
    6871     6595     6596 1
    6872     6595     6599 1
    6873     6596     6597 1
    6874     6597     6598 1
    6875     6597     6601 1
    6876     6598     6599 1
    6877     6602     6603 1
    6878     6602     6610 1
    6879     6603     6604 1
    6880     6603     6611 1
    6881     6604     6605 1
    6882     6605     6606 1
    6883     6605     6609 1
    6884     6606     6607 1
    6885     6607     6608 1
    6886     6608     6609 1
    6887     6609     6610 1
    6888     6610     6720 1
    6889     6612     6613 1
    6890     6612     6645 1
    6891     6612     6646 1
    6892     6612     6647 1
    6893     6613     6614 1
    6894     6613     6648 1
    6895     6613     6649 1
    6896     6614     6615 1
    6897     6614     6650 1
    6898     6614     6651 1
    6899     6615     6616 1
    6900     6615     6652 1
    6901     6615     6653 1
    6902     6616     6617 1
    6903     6616     6654 1
    6904     6616     6655 1
    6905     6617     6618 1
    6906     6617     6656 1
    6907     6617     6657 1
    6908     6618     6619 1
    6909     6618     6658 1
    6910     6618     6659 1
    6911     6619     6620 1
    6912     6619     6660 1
    6913     6619     6661 1
    6914     6620     6621 1
    6915     6620     6627 1
    6916     6620     6662 1
    6917     6621     6622 1
    6918     6621     6663 1
    6919     6621     6664 1
    6920     6622     6623 1
    6921     6622     6665 1
    6922     6622     6666 1
    6923     6623     6624 1
    6924     6623     6667 1
    6925     6623     6668 1
    6926     6624     6625 1
    6927     6624     6669 1
    6928     6624     6670 1
    6929     6625     6626 1
    6930     6625     6671 1
    6931     6625     6672 1
    6932     6626     6673 1
    6933     6626     6674 1
    6934     6626     6675 1
    6935     6627     6628 1
    6936     6627     6676 1
    6937     6627     6677 1
    6938     6628     6629 1
    6939     6629     6630 1
    6940     6629     6678 1
    6941     6629     6679 1
    6942     6630     6631 1
    6943     6630     6637 1
    6944     6630     6680 1
    6945     6631     6632 1
    6946     6631     6681 1
    6947     6631     6682 1
    6948     6632     6633 1
    6949     6632     6683 1
    6950     6632     6684 1
    6951     6633     6634 1
    6952     6633     6685 1
    6953     6633     6686 1
    6954     6634     6635 1
    6955     6634     6687 1
    6956     6634     6688 1
    6957     6635     6636 1
    6958     6635     6689 1
    6959     6635     6690 1
    6960     6636     6691 1
    6961     6636     6692 1
    6962     6636     6693 1
    6963     6637     6638 1
    6964     6637     6694 1
    6965     6637     6695 1
    6966     6638     6639 1
    6967     6638     6696 1
    6968     6638     6697 1
    6969     6639     6640 1
    6970     6639     6698 1
    6971     6639     6699 1
    6972     6640     6641 1
    6973     6640     6700 1
    6974     6640     6701 1
    6975     6641     6642 1
    6976     6641     6702 1
    6977     6641     6703 1
    6978     6642     6643 1
    6979     6642     6704 1
    6980     6642     6705 1
    6981     6643     6644 1
    6982     6643     6706 1
    6983     6643     6707 1
    6984     6644     6708 1
    6985     6644     6709 1
    6986     6644     6710 1
    6987     6711     6712 1
    6988     6711     6718 1
    6989     6711     6750 1
    6990     6712     6713 1
    6991     6712     6716 1
    6992     6713     6714 1
    6993     6713     6717 1
    6994     6714     6715 1
    6995     6715     6716 1
    6996     6715     6726 1
    6997     6716     6722 1
    6998     6717     6718 1
    6999     6717     6721 1
    7000     6718     6719 1
    7001     6719     6720 1
    7002     6719     6723 1
    7003     6720     6721 1
    7004     6724     6725 1
    7005     6724     6732 1
    7006     6725     6726 1
    7007     6725     6733 1
    7008     6726     6727 1
    7009     6727     6728 1
    7010     6727     6731 1
    7011     6728     6729 1
    7012     6729     6730 1
    7013     6730     6731 1
    7014     6731     6732 1
    7015     6732     6842 1
    7016     6734     6735 1
    7017     6734     6767 1
    7018     6734     6768 1
    7019     6734     6769 1
    7020     6735     6736 1
    7021     6735     6770 1
    7022     6735     6771 1
    7023     6736     6737 1
    7024     6736     6772 1
    7025     6736     6773 1
    7026     6737     6738 1
    7027     6737     6774 1
    7028     6737     6775 1
    7029     6738     6739 1
    7030     6738     6776 1
    7031     6738     6777 1
    7032     6739     6740 1
    7033     6739     6778 1
    7034     6739     6779 1
    7035     6740     6741 1
    7036     6740     6780 1
    7037     6740     6781 1
    7038     6741     6742 1
    7039     6741     6782 1
    7040     6741     6783 1
    7041     6742     6743 1
    7042     6742     6749 1
    7043     6742     6784 1
    7044     6743     6744 1
    7045     6743     6785 1
    7046     6743     6786 1
    7047     6744     6745 1
    7048     6744     6787 1
    7049     6744     6788 1
    7050     6745     6746 1
    7051     6745     6789 1
    7052     6745     6790 1
    7053     6746     6747 1
    7054     6746     6791 1
    7055     6746     6792 1
    7056     6747     6748 1
    7057     6747     6793 1
    7058     6747     6794 1
    7059     6748     6795 1
    7060     6748     6796 1
    7061     6748     6797 1
    7062     6749     6750 1
    7063     6749     6798 1
    7064     6749     6799 1
    7065     6750     6751 1
    7066     6751     6752 1
    7067     6751     6800 1
    7068     6751     6801 1
    7069     6752     6753 1
    7070     6752     6759 1
    7071     6752     6802 1
    7072     6753     6754 1
    7073     6753     6803 1
    7074     6753     6804 1
    7075     6754     6755 1
    7076     6754     6805 1
    7077     6754     6806 1
    7078     6755     6756 1
    7079     6755     6807 1
    7080     6755     6808 1
    7081     6756     6757 1
    7082     6756     6809 1
    7083     6756     6810 1
    7084     6757     6758 1
    7085     6757     6811 1
    7086     6757     6812 1
    7087     6758     6813 1
    7088     6758     6814 1
    7089     6758     6815 1
    7090     6759     6760 1
    7091     6759     6816 1
    7092     6759     6817 1
    7093     6760     6761 1
    7094     6760     6818 1
    7095     6760     6819 1
    7096     6761     6762 1
    7097     6761     6820 1
    7098     6761     6821 1
    7099     6762     6763 1
    7100     6762     6822 1
    7101     6762     6823 1
    7102     6763     6764 1
    7103     6763     6824 1
    7104     6763     6825 1
    7105     6764     6765 1
    7106     6764     6826 1
    7107     6764     6827 1
    7108     6765     6766 1
    7109     6765     6828 1
    7110     6765     6829 1
    7111     6766     6830 1
    7112     6766     6831 1
    7113     6766     6832 1
    7114     6833     6834 1
    7115     6833     6840 1
    7116     6833     6872 1
    7117     6834     6835 1
    7118     6834     6838 1
    7119     6835     6836 1
    7120     6835     6839 1
    7121     6836     6837 1
    7122     6837     6838 1
    7123     6837     6848 1
    7124     6838     6844 1
    7125     6839     6840 1
    7126     6839     6843 1
    7127     6840     6841 1
    7128     6841     6842 1
    7129     6841     6845 1
    7130     6842     6843 1
    7131     6846     6847 1
    7132     6846     6854 1
    7133     6847     6848 1
    7134     6847     6855 1
    7135     6848     6849 1
    7136     6849     6850 1
    7137     6849     6853 1
    7138     6850     6851 1
    7139     6851     6852 1
    7140     6852     6853 1
    7141     6853     6854 1
    7142     6854     6964 1
    7143     6856     6857 1
    7144     6856     6889 1
    7145     6856     6890 1
    7146     6856     6891 1
    7147     6857     6858 1
    7148     6857     6892 1
    7149     6857     6893 1
    7150     6858     6859 1
    7151     6858     6894 1
    7152     6858     6895 1
    7153     6859     6860 1
    7154     6859     6896 1
    7155     6859     6897 1
    7156     6860     6861 1
    7157     6860     6898 1
    7158     6860     6899 1
    7159     6861     6862 1
    7160     6861     6900 1
    7161     6861     6901 1
    7162     6862     6863 1
    7163     6862     6902 1
    7164     6862     6903 1
    7165     6863     6864 1
    7166     6863     6904 1
    7167     6863     6905 1
    7168     6864     6865 1
    7169     6864     6871 1
    7170     6864     6906 1
    7171     6865     6866 1
    7172     6865     6907 1
    7173     6865     6908 1
    7174     6866     6867 1
    7175     6866     6909 1
    7176     6866     6910 1
    7177     6867     6868 1
    7178     6867     6911 1
    7179     6867     6912 1
    7180     6868     6869 1
    7181     6868     6913 1
    7182     6868     6914 1
    7183     6869     6870 1
    7184     6869     6915 1
    7185     6869     6916 1
    7186     6870     6917 1
    7187     6870     6918 1
    7188     6870     6919 1
    7189     6871     6872 1
    7190     6871     6920 1
    7191     6871     6921 1
    7192     6872     6873 1
    7193     6873     6874 1
    7194     6873     6922 1
    7195     6873     6923 1
    7196     6874     6875 1
    7197     6874     6881 1
    7198     6874     6924 1
    7199     6875     6876 1
    7200     6875     6925 1
    7201     6875     6926 1
    7202     6876     6877 1
    7203     6876     6927 1
    7204     6876     6928 1
    7205     6877     6878 1
    7206     6877     6929 1
    7207     6877     6930 1
    7208     6878     6879 1
    7209     6878     6931 1
    7210     6878     6932 1
    7211     6879     6880 1
    7212     6879     6933 1
    7213     6879     6934 1
    7214     6880     6935 1
    7215     6880     6936 1
    7216     6880     6937 1
    7217     6881     6882 1
    7218     6881     6938 1
    7219     6881     6939 1
    7220     6882     6883 1
    7221     6882     6940 1
    7222     6882     6941 1
    7223     6883     6884 1
    7224     6883     6942 1
    7225     6883     6943 1
    7226     6884     6885 1
    7227     6884     6944 1
    7228     6884     6945 1
    7229     6885     6886 1
    7230     6885     6946 1
    7231     6885     6947 1
    7232     6886     6887 1
    7233     6886     6948 1
    7234     6886     6949 1
    7235     6887     6888 1
    7236     6887     6950 1
    7237     6887     6951 1
    7238     6888     6952 1
    7239     6888     6953 1
    7240     6888     6954 1
    7241     6955     6956 1
    7242     6955     6962 1
    7243     6955     6994 1
    7244     6956     6957 1
    7245     6956     6960 1
    7246     6957     6958 1
    7247     6957     6961 1
    7248     6958     6959 1
    7249     6959     6960 1
    7250     6959     6970 1
    7251     6960     6966 1
    7252     6961     6962 1
    7253     6961     6965 1
    7254     6962     6963 1
    7255     6963     6964 1
    7256     6963     6967 1
    7257     6964     6965 1
    7258     6968     6969 1
    7259     6968     6976 1
    7260     6969     6970 1
    7261     6969     6977 1
    7262     6970     6971 1
    7263     6971     6972 1
    7264     6971     6975 1
    7265     6972     6973 1
    7266     6973     6974 1
    7267     6974     6975 1
    7268     6975     6976 1
    7269     6976     7086 1
    7270     6978     6979 1
    7271     6978     7011 1
    7272     6978     7012 1
    7273     6978     7013 1
    7274     6979     6980 1
    7275     6979     7014 1
    7276     6979     7015 1
    7277     6980     6981 1
    7278     6980     7016 1
    7279     6980     7017 1
    7280     6981     6982 1
    7281     6981     7018 1
    7282     6981     7019 1
    7283     6982     6983 1
    7284     6982     7020 1
    7285     6982     7021 1
    7286     6983     6984 1
    7287     6983     7022 1
    7288     6983     7023 1
    7289     6984     6985 1
    7290     6984     7024 1
    7291     6984     7025 1
    7292     6985     6986 1
    7293     6985     7026 1
    7294     6985     7027 1
    7295     6986     6987 1
    7296     6986     6993 1
    7297     6986     7028 1
    7298     6987     6988 1
    7299     6987     7029 1
    7300     6987     7030 1
    7301     6988     6989 1
    7302     6988     7031 1
    7303     6988     7032 1
    7304     6989     6990 1
    7305     6989     7033 1
    7306     6989     7034 1
    7307     6990     6991 1
    7308     6990     7035 1
    7309     6990     7036 1
    7310     6991     6992 1
    7311     6991     7037 1
    7312     6991     7038 1
    7313     6992     7039 1
    7314     6992     7040 1
    7315     6992     7041 1
    7316     6993     6994 1
    7317     6993     7042 1
    7318     6993     7043 1
    7319     6994     6995 1
    7320     6995     6996 1
    7321     6995     7044 1
    7322     6995     7045 1
    7323     6996     6997 1
    7324     6996     7003 1
    7325     6996     7046 1
    7326     6997     6998 1
    7327     6997     7047 1
    7328     6997     7048 1
    7329     6998     6999 1
    7330     6998     7049 1
    7331     6998     7050 1
    7332     6999     7000 1
    7333     6999     7051 1
    7334     6999     7052 1
    7335     7000     7001 1
    7336     7000     7053 1
    7337     7000     7054 1
    7338     7001     7002 1
    7339     7001     7055 1
    7340     7001     7056 1
    7341     7002     7057 1
    7342     7002     7058 1
    7343     7002     7059 1
    7344     7003     7004 1
    7345     7003     7060 1
    7346     7003     7061 1
    7347     7004     7005 1
    7348     7004     7062 1
    7349     7004     7063 1
    7350     7005     7006 1
    7351     7005     7064 1
    7352     7005     7065 1
    7353     7006     7007 1
    7354     7006     7066 1
    7355     7006     7067 1
    7356     7007     7008 1
    7357     7007     7068 1
    7358     7007     7069 1
    7359     7008     7009 1
    7360     7008     7070 1
    7361     7008     7071 1
    7362     7009     7010 1
    7363     7009     7072 1
    7364     7009     7073 1
    7365     7010     7074 1
    7366     7010     7075 1
    7367     7010     7076 1
    7368     7077     7078 1
    7369     7077     7084 1
    7370     7077     7116 1
    7371     7078     7079 1
    7372     7078     7082 1
    7373     7079     7080 1
    7374     7079     7083 1
    7375     7080     7081 1
    7376     7081     7082 1
    7377     7081     7092 1
    7378     7082     7088 1
    7379     7083     7084 1
    7380     7083     7087 1
    7381     7084     7085 1
    7382     7085     7086 1
    7383     7085     7089 1
    7384     7086     7087 1
    7385     7090     7091 1
    7386     7090     7098 1
    7387     7091     7092 1
    7388     7091     7099 1
    7389     7092     7093 1
    7390     7093     7094 1
    7391     7093     7097 1
    7392     7094     7095 1
    7393     7095     7096 1
    7394     7096     7097 1
    7395     7097     7098 1
    7396     7098     7208 1
    7397     7100     7101 1
    7398     7100     7133 1
    7399     7100     7134 1
    7400     7100     7135 1
    7401     7101     7102 1
    7402     7101     7136 1
    7403     7101     7137 1
    7404     7102     7103 1
    7405     7102     7138 1
    7406     7102     7139 1
    7407     7103     7104 1
    7408     7103     7140 1
    7409     7103     7141 1
    7410     7104     7105 1
    7411     7104     7142 1
    7412     7104     7143 1
    7413     7105     7106 1
    7414     7105     7144 1
    7415     7105     7145 1
    7416     7106     7107 1
    7417     7106     7146 1
    7418     7106     7147 1
    7419     7107     7108 1
    7420     7107     7148 1
    7421     7107     7149 1
    7422     7108     7109 1
    7423     7108     7115 1
    7424     7108     7150 1
    7425     7109     7110 1
    7426     7109     7151 1
    7427     7109     7152 1
    7428     7110     7111 1
    7429     7110     7153 1
    7430     7110     7154 1
    7431     7111     7112 1
    7432     7111     7155 1
    7433     7111     7156 1
    7434     7112     7113 1
    7435     7112     7157 1
    7436     7112     7158 1
    7437     7113     7114 1
    7438     7113     7159 1
    7439     7113     7160 1
    7440     7114     7161 1
    7441     7114     7162 1
    7442     7114     7163 1
    7443     7115     7116 1
    7444     7115     7164 1
    7445     7115     7165 1
    7446     7116     7117 1
    7447     7117     7118 1
    7448     7117     7166 1
    7449     7117     7167 1
    7450     7118     7119 1
    7451     7118     7125 1
    7452     7118     7168 1
    7453     7119     7120 1
    7454     7119     7169 1
    7455     7119     7170 1
    7456     7120     7121 1
    7457     7120     7171 1
    7458     7120     7172 1
    7459     7121     7122 1
    7460     7121     7173 1
    7461     7121     7174 1
    7462     7122     7123 1
    7463     7122     7175 1
    7464     7122     7176 1
    7465     7123     7124 1
    7466     7123     7177 1
    7467     7123     7178 1
    7468     7124     7179 1
    7469     7124     7180 1
    7470     7124     7181 1
    7471     7125     7126 1
    7472     7125     7182 1
    7473     7125     7183 1
    7474     7126     7127 1
    7475     7126     7184 1
    7476     7126     7185 1
    7477     7127     7128 1
    7478     7127     7186 1
    7479     7127     7187 1
    7480     7128     7129 1
    7481     7128     7188 1
    7482     7128     7189 1
    7483     7129     7130 1
    7484     7129     7190 1
    7485     7129     7191 1
    7486     7130     7131 1
    7487     7130     7192 1
    7488     7130     7193 1
    7489     7131     7132 1
    7490     7131     7194 1
    7491     7131     7195 1
    7492     7132     7196 1
    7493     7132     7197 1
    7494     7132     7198 1
    7495     7199     7200 1
    7496     7199     7206 1
    7497     7199     7238 1
    7498     7200     7201 1
    7499     7200     7204 1
    7500     7201     7202 1
    7501     7201     7205 1
    7502     7202     7203 1
    7503     7203     7204 1
    7504     7203     7214 1
    7505     7204     7210 1
    7506     7205     7206 1
    7507     7205     7209 1
    7508     7206     7207 1
    7509     7207     7208 1
    7510     7207     7211 1
    7511     7208     7209 1
    7512     7212     7213 1
    7513     7212     7220 1
    7514     7213     7214 1
    7515     7213     7221 1
    7516     7214     7215 1
    7517     7215     7216 1
    7518     7215     7219 1
    7519     7216     7217 1
    7520     7217     7218 1
    7521     7218     7219 1
    7522     7219     7220 1
    7523     7220     7330 1
    7524     7222     7223 1
    7525     7222     7255 1
    7526     7222     7256 1
    7527     7222     7257 1
    7528     7223     7224 1
    7529     7223     7258 1
    7530     7223     7259 1
    7531     7224     7225 1
    7532     7224     7260 1
    7533     7224     7261 1
    7534     7225     7226 1
    7535     7225     7262 1
    7536     7225     7263 1
    7537     7226     7227 1
    7538     7226     7264 1
    7539     7226     7265 1
    7540     7227     7228 1
    7541     7227     7266 1
    7542     7227     7267 1
    7543     7228     7229 1
    7544     7228     7268 1
    7545     7228     7269 1
    7546     7229     7230 1
    7547     7229     7270 1
    7548     7229     7271 1
    7549     7230     7231 1
    7550     7230     7237 1
    7551     7230     7272 1
    7552     7231     7232 1
    7553     7231     7273 1
    7554     7231     7274 1
    7555     7232     7233 1
    7556     7232     7275 1
    7557     7232     7276 1
    7558     7233     7234 1
    7559     7233     7277 1
    7560     7233     7278 1
    7561     7234     7235 1
    7562     7234     7279 1
    7563     7234     7280 1
    7564     7235     7236 1
    7565     7235     7281 1
    7566     7235     7282 1
    7567     7236     7283 1
    7568     7236     7284 1
    7569     7236     7285 1
    7570     7237     7238 1
    7571     7237     7286 1
    7572     7237     7287 1
    7573     7238     7239 1
    7574     7239     7240 1
    7575     7239     7288 1
    7576     7239     7289 1
    7577     7240     7241 1
    7578     7240     7247 1
    7579     7240     7290 1
    7580     7241     7242 1
    7581     7241     7291 1
    7582     7241     7292 1
    7583     7242     7243 1
    7584     7242     7293 1
    7585     7242     7294 1
    7586     7243     7244 1
    7587     7243     7295 1
    7588     7243     7296 1
    7589     7244     7245 1
    7590     7244     7297 1
    7591     7244     7298 1
    7592     7245     7246 1
    7593     7245     7299 1
    7594     7245     7300 1
    7595     7246     7301 1
    7596     7246     7302 1
    7597     7246     7303 1
    7598     7247     7248 1
    7599     7247     7304 1
    7600     7247     7305 1
    7601     7248     7249 1
    7602     7248     7306 1
    7603     7248     7307 1
    7604     7249     7250 1
    7605     7249     7308 1
    7606     7249     7309 1
    7607     7250     7251 1
    7608     7250     7310 1
    7609     7250     7311 1
    7610     7251     7252 1
    7611     7251     7312 1
    7612     7251     7313 1
    7613     7252     7253 1
    7614     7252     7314 1
    7615     7252     7315 1
    7616     7253     7254 1
    7617     7253     7316 1
    7618     7253     7317 1
    7619     7254     7318 1
    7620     7254     7319 1
    7621     7254     7320 1
    7622     7321     7322 1
    7623     7321     7328 1
    7624     7321     7360 1
    7625     7322     7323 1
    7626     7322     7326 1
    7627     7323     7324 1
    7628     7323     7327 1
    7629     7324     7325 1
    7630     7325     7326 1
    7631     7325     7336 1
    7632     7326     7332 1
    7633     7327     7328 1
    7634     7327     7331 1
    7635     7328     7329 1
    7636     7329     7330 1
    7637     7329     7333 1
    7638     7330     7331 1
    7639     7334     7335 1
    7640     7334     7342 1
    7641     7335     7336 1
    7642     7335     7343 1
    7643     7336     7337 1
    7644     7337     7338 1
    7645     7337     7341 1
    7646     7338     7339 1
    7647     7339     7340 1
    7648     7340     7341 1
    7649     7341     7342 1
    7650     7342     7452 1
    7651     7344     7345 1
    7652     7344     7377 1
    7653     7344     7378 1
    7654     7344     7379 1
    7655     7345     7346 1
    7656     7345     7380 1
    7657     7345     7381 1
    7658     7346     7347 1
    7659     7346     7382 1
    7660     7346     7383 1
    7661     7347     7348 1
    7662     7347     7384 1
    7663     7347     7385 1
    7664     7348     7349 1
    7665     7348     7386 1
    7666     7348     7387 1
    7667     7349     7350 1
    7668     7349     7388 1
    7669     7349     7389 1
    7670     7350     7351 1
    7671     7350     7390 1
    7672     7350     7391 1
    7673     7351     7352 1
    7674     7351     7392 1
    7675     7351     7393 1
    7676     7352     7353 1
    7677     7352     7359 1
    7678     7352     7394 1
    7679     7353     7354 1
    7680     7353     7395 1
    7681     7353     7396 1
    7682     7354     7355 1
    7683     7354     7397 1
    7684     7354     7398 1
    7685     7355     7356 1
    7686     7355     7399 1
    7687     7355     7400 1
    7688     7356     7357 1
    7689     7356     7401 1
    7690     7356     7402 1
    7691     7357     7358 1
    7692     7357     7403 1
    7693     7357     7404 1
    7694     7358     7405 1
    7695     7358     7406 1
    7696     7358     7407 1
    7697     7359     7360 1
    7698     7359     7408 1
    7699     7359     7409 1
    7700     7360     7361 1
    7701     7361     7362 1
    7702     7361     7410 1
    7703     7361     7411 1
    7704     7362     7363 1
    7705     7362     7369 1
    7706     7362     7412 1
    7707     7363     7364 1
    7708     7363     7413 1
    7709     7363     7414 1
    7710     7364     7365 1
    7711     7364     7415 1
    7712     7364     7416 1
    7713     7365     7366 1
    7714     7365     7417 1
    7715     7365     7418 1
    7716     7366     7367 1
    7717     7366     7419 1
    7718     7366     7420 1
    7719     7367     7368 1
    7720     7367     7421 1
    7721     7367     7422 1
    7722     7368     7423 1
    7723     7368     7424 1
    7724     7368     7425 1
    7725     7369     7370 1
    7726     7369     7426 1
    7727     7369     7427 1
    7728     7370     7371 1
    7729     7370     7428 1
    7730     7370     7429 1
    7731     7371     7372 1
    7732     7371     7430 1
    7733     7371     7431 1
    7734     7372     7373 1
    7735     7372     7432 1
    7736     7372     7433 1
    7737     7373     7374 1
    7738     7373     7434 1
    7739     7373     7435 1
    7740     7374     7375 1
    7741     7374     7436 1
    7742     7374     7437 1
    7743     7375     7376 1
    7744     7375     7438 1
    7745     7375     7439 1
    7746     7376     7440 1
    7747     7376     7441 1
    7748     7376     7442 1
    7749     7443     7444 1
    7750     7443     7450 1
    7751     7443     7482 1
    7752     7444     7445 1
    7753     7444     7448 1
    7754     7445     7446 1
    7755     7445     7449 1
    7756     7446     7447 1
    7757     7447     7448 1
    7758     7447     7458 1
    7759     7448     7454 1
    7760     7449     7450 1
    7761     7449     7453 1
    7762     7450     7451 1
    7763     7451     7452 1
    7764     7451     7455 1
    7765     7452     7453 1
    7766     7456     7457 1
    7767     7456     7464 1
    7768     7457     7458 1
    7769     7457     7465 1
    7770     7458     7459 1
    7771     7459     7460 1
    7772     7459     7463 1
    7773     7460     7461 1
    7774     7461     7462 1
    7775     7462     7463 1
    7776     7463     7464 1
    7777     7464     7574 1
    7778     7466     7467 1
    7779     7466     7499 1
    7780     7466     7500 1
    7781     7466     7501 1
    7782     7467     7468 1
    7783     7467     7502 1
    7784     7467     7503 1
    7785     7468     7469 1
    7786     7468     7504 1
    7787     7468     7505 1
    7788     7469     7470 1
    7789     7469     7506 1
    7790     7469     7507 1
    7791     7470     7471 1
    7792     7470     7508 1
    7793     7470     7509 1
    7794     7471     7472 1
    7795     7471     7510 1
    7796     7471     7511 1
    7797     7472     7473 1
    7798     7472     7512 1
    7799     7472     7513 1
    7800     7473     7474 1
    7801     7473     7514 1
    7802     7473     7515 1
    7803     7474     7475 1
    7804     7474     7481 1
    7805     7474     7516 1
    7806     7475     7476 1
    7807     7475     7517 1
    7808     7475     7518 1
    7809     7476     7477 1
    7810     7476     7519 1
    7811     7476     7520 1
    7812     7477     7478 1
    7813     7477     7521 1
    7814     7477     7522 1
    7815     7478     7479 1
    7816     7478     7523 1
    7817     7478     7524 1
    7818     7479     7480 1
    7819     7479     7525 1
    7820     7479     7526 1
    7821     7480     7527 1
    7822     7480     7528 1
    7823     7480     7529 1
    7824     7481     7482 1
    7825     7481     7530 1
    7826     7481     7531 1
    7827     7482     7483 1
    7828     7483     7484 1
    7829     7483     7532 1
    7830     7483     7533 1
    7831     7484     7485 1
    7832     7484     7491 1
    7833     7484     7534 1
    7834     7485     7486 1
    7835     7485     7535 1
    7836     7485     7536 1
    7837     7486     7487 1
    7838     7486     7537 1
    7839     7486     7538 1
    7840     7487     7488 1
    7841     7487     7539 1
    7842     7487     7540 1
    7843     7488     7489 1
    7844     7488     7541 1
    7845     7488     7542 1
    7846     7489     7490 1
    7847     7489     7543 1
    7848     7489     7544 1
    7849     7490     7545 1
    7850     7490     7546 1
    7851     7490     7547 1
    7852     7491     7492 1
    7853     7491     7548 1
    7854     7491     7549 1
    7855     7492     7493 1
    7856     7492     7550 1
    7857     7492     7551 1
    7858     7493     7494 1
    7859     7493     7552 1
    7860     7493     7553 1
    7861     7494     7495 1
    7862     7494     7554 1
    7863     7494     7555 1
    7864     7495     7496 1
    7865     7495     7556 1
    7866     7495     7557 1
    7867     7496     7497 1
    7868     7496     7558 1
    7869     7496     7559 1
    7870     7497     7498 1
    7871     7497     7560 1
    7872     7497     7561 1
    7873     7498     7562 1
    7874     7498     7563 1
    7875     7498     7564 1
    7876     7565     7566 1
    7877     7565     7572 1
    7878     7565     7604 1
    7879     7566     7567 1
    7880     7566     7570 1
    7881     7567     7568 1
    7882     7567     7571 1
    7883     7568     7569 1
    7884     7569     7570 1
    7885     7569     7580 1
    7886     7570     7576 1
    7887     7571     7572 1
    7888     7571     7575 1
    7889     7572     7573 1
    7890     7573     7574 1
    7891     7573     7577 1
    7892     7574     7575 1
    7893     7578     7579 1
    7894     7578     7586 1
    7895     7579     7580 1
    7896     7579     7587 1
    7897     7580     7581 1
    7898     7581     7582 1
    7899     7581     7585 1
    7900     7582     7583 1
    7901     7583     7584 1
    7902     7584     7585 1
    7903     7585     7586 1
    7904     7586     7696 1
    7905     7588     7589 1
    7906     7588     7621 1
    7907     7588     7622 1
    7908     7588     7623 1
    7909     7589     7590 1
    7910     7589     7624 1
    7911     7589     7625 1
    7912     7590     7591 1
    7913     7590     7626 1
    7914     7590     7627 1
    7915     7591     7592 1
    7916     7591     7628 1
    7917     7591     7629 1
    7918     7592     7593 1
    7919     7592     7630 1
    7920     7592     7631 1
    7921     7593     7594 1
    7922     7593     7632 1
    7923     7593     7633 1
    7924     7594     7595 1
    7925     7594     7634 1
    7926     7594     7635 1
    7927     7595     7596 1
    7928     7595     7636 1
    7929     7595     7637 1
    7930     7596     7597 1
    7931     7596     7603 1
    7932     7596     7638 1
    7933     7597     7598 1
    7934     7597     7639 1
    7935     7597     7640 1
    7936     7598     7599 1
    7937     7598     7641 1
    7938     7598     7642 1
    7939     7599     7600 1
    7940     7599     7643 1
    7941     7599     7644 1
    7942     7600     7601 1
    7943     7600     7645 1
    7944     7600     7646 1
    7945     7601     7602 1
    7946     7601     7647 1
    7947     7601     7648 1
    7948     7602     7649 1
    7949     7602     7650 1
    7950     7602     7651 1
    7951     7603     7604 1
    7952     7603     7652 1
    7953     7603     7653 1
    7954     7604     7605 1
    7955     7605     7606 1
    7956     7605     7654 1
    7957     7605     7655 1
    7958     7606     7607 1
    7959     7606     7613 1
    7960     7606     7656 1
    7961     7607     7608 1
    7962     7607     7657 1
    7963     7607     7658 1
    7964     7608     7609 1
    7965     7608     7659 1
    7966     7608     7660 1
    7967     7609     7610 1
    7968     7609     7661 1
    7969     7609     7662 1
    7970     7610     7611 1
    7971     7610     7663 1
    7972     7610     7664 1
    7973     7611     7612 1
    7974     7611     7665 1
    7975     7611     7666 1
    7976     7612     7667 1
    7977     7612     7668 1
    7978     7612     7669 1
    7979     7613     7614 1
    7980     7613     7670 1
    7981     7613     7671 1
    7982     7614     7615 1
    7983     7614     7672 1
    7984     7614     7673 1
    7985     7615     7616 1
    7986     7615     7674 1
    7987     7615     7675 1
    7988     7616     7617 1
    7989     7616     7676 1
    7990     7616     7677 1
    7991     7617     7618 1
    7992     7617     7678 1
    7993     7617     7679 1
    7994     7618     7619 1
    7995     7618     7680 1
    7996     7618     7681 1
    7997     7619     7620 1
    7998     7619     7682 1
    7999     7619     7683 1
    8000     7620     7684 1
    8001     7620     7685 1
    8002     7620     7686 1
    8003     7687     7688 1
    8004     7687     7694 1
    8005     7687     7726 1
    8006     7688     7689 1
    8007     7688     7692 1
    8008     7689     7690 1
    8009     7689     7693 1
    8010     7690     7691 1
    8011     7691     7692 1
    8012     7691     7702 1
    8013     7692     7698 1
    8014     7693     7694 1
    8015     7693     7697 1
    8016     7694     7695 1
    8017     7695     7696 1
    8018     7695     7699 1
    8019     7696     7697 1
    8020     7700     7701 1
    8021     7700     7708 1
    8022     7701     7702 1
    8023     7701     7709 1
    8024     7702     7703 1
    8025     7703     7704 1
    8026     7703     7707 1
    8027     7704     7705 1
    8028     7705     7706 1
    8029     7706     7707 1
    8030     7707     7708 1
    8031     7708     7818 1
    8032     7710     7711 1
    8033     7710     7743 1
    8034     7710     7744 1
    8035     7710     7745 1
    8036     7711     7712 1
    8037     7711     7746 1
    8038     7711     7747 1
    8039     7712     7713 1
    8040     7712     7748 1
    8041     7712     7749 1
    8042     7713     7714 1
    8043     7713     7750 1
    8044     7713     7751 1
    8045     7714     7715 1
    8046     7714     7752 1
    8047     7714     7753 1
    8048     7715     7716 1
    8049     7715     7754 1
    8050     7715     7755 1
    8051     7716     7717 1
    8052     7716     7756 1
    8053     7716     7757 1
    8054     7717     7718 1
    8055     7717     7758 1
    8056     7717     7759 1
    8057     7718     7719 1
    8058     7718     7725 1
    8059     7718     7760 1
    8060     7719     7720 1
    8061     7719     7761 1
    8062     7719     7762 1
    8063     7720     7721 1
    8064     7720     7763 1
    8065     7720     7764 1
    8066     7721     7722 1
    8067     7721     7765 1
    8068     7721     7766 1
    8069     7722     7723 1
    8070     7722     7767 1
    8071     7722     7768 1
    8072     7723     7724 1
    8073     7723     7769 1
    8074     7723     7770 1
    8075     7724     7771 1
    8076     7724     7772 1
    8077     7724     7773 1
    8078     7725     7726 1
    8079     7725     7774 1
    8080     7725     7775 1
    8081     7726     7727 1
    8082     7727     7728 1
    8083     7727     7776 1
    8084     7727     7777 1
    8085     7728     7729 1
    8086     7728     7735 1
    8087     7728     7778 1
    8088     7729     7730 1
    8089     7729     7779 1
    8090     7729     7780 1
    8091     7730     7731 1
    8092     7730     7781 1
    8093     7730     7782 1
    8094     7731     7732 1
    8095     7731     7783 1
    8096     7731     7784 1
    8097     7732     7733 1
    8098     7732     7785 1
    8099     7732     7786 1
    8100     7733     7734 1
    8101     7733     7787 1
    8102     7733     7788 1
    8103     7734     7789 1
    8104     7734     7790 1
    8105     7734     7791 1
    8106     7735     7736 1
    8107     7735     7792 1
    8108     7735     7793 1
    8109     7736     7737 1
    8110     7736     7794 1
    8111     7736     7795 1
    8112     7737     7738 1
    8113     7737     7796 1
    8114     7737     7797 1
    8115     7738     7739 1
    8116     7738     7798 1
    8117     7738     7799 1
    8118     7739     7740 1
    8119     7739     7800 1
    8120     7739     7801 1
    8121     7740     7741 1
    8122     7740     7802 1
    8123     7740     7803 1
    8124     7741     7742 1
    8125     7741     7804 1
    8126     7741     7805 1
    8127     7742     7806 1
    8128     7742     7807 1
    8129     7742     7808 1
    8130     7809     7810 1
    8131     7809     7816 1
    8132     7809     7848 1
    8133     7810     7811 1
    8134     7810     7814 1
    8135     7811     7812 1
    8136     7811     7815 1
    8137     7812     7813 1
    8138     7813     7814 1
    8139     7813     7824 1
    8140     7814     7820 1
    8141     7815     7816 1
    8142     7815     7819 1
    8143     7816     7817 1
    8144     7817     7818 1
    8145     7817     7821 1
    8146     7818     7819 1
    8147     7822     7823 1
    8148     7822     7830 1
    8149     7823     7824 1
    8150     7823     7831 1
    8151     7824     7825 1
    8152     7825     7826 1
    8153     7825     7829 1
    8154     7826     7827 1
    8155     7827     7828 1
    8156     7828     7829 1
    8157     7829     7830 1
    8158     7830     7940 1
    8159     7832     7833 1
    8160     7832     7865 1
    8161     7832     7866 1
    8162     7832     7867 1
    8163     7833     7834 1
    8164     7833     7868 1
    8165     7833     7869 1
    8166     7834     7835 1
    8167     7834     7870 1
    8168     7834     7871 1
    8169     7835     7836 1
    8170     7835     7872 1
    8171     7835     7873 1
    8172     7836     7837 1
    8173     7836     7874 1
    8174     7836     7875 1
    8175     7837     7838 1
    8176     7837     7876 1
    8177     7837     7877 1
    8178     7838     7839 1
    8179     7838     7878 1
    8180     7838     7879 1
    8181     7839     7840 1
    8182     7839     7880 1
    8183     7839     7881 1
    8184     7840     7841 1
    8185     7840     7847 1
    8186     7840     7882 1
    8187     7841     7842 1
    8188     7841     7883 1
    8189     7841     7884 1
    8190     7842     7843 1
    8191     7842     7885 1
    8192     7842     7886 1
    8193     7843     7844 1
    8194     7843     7887 1
    8195     7843     7888 1
    8196     7844     7845 1
    8197     7844     7889 1
    8198     7844     7890 1
    8199     7845     7846 1
    8200     7845     7891 1
    8201     7845     7892 1
    8202     7846     7893 1
    8203     7846     7894 1
    8204     7846     7895 1
    8205     7847     7848 1
    8206     7847     7896 1
    8207     7847     7897 1
    8208     7848     7849 1
    8209     7849     7850 1
    8210     7849     7898 1
    8211     7849     7899 1
    8212     7850     7851 1
    8213     7850     7857 1
    8214     7850     7900 1
    8215     7851     7852 1
    8216     7851     7901 1
    8217     7851     7902 1
    8218     7852     7853 1
    8219     7852     7903 1
    8220     7852     7904 1
    8221     7853     7854 1
    8222     7853     7905 1
    8223     7853     7906 1
    8224     7854     7855 1
    8225     7854     7907 1
    8226     7854     7908 1
    8227     7855     7856 1
    8228     7855     7909 1
    8229     7855     7910 1
    8230     7856     7911 1
    8231     7856     7912 1
    8232     7856     7913 1
    8233     7857     7858 1
    8234     7857     7914 1
    8235     7857     7915 1
    8236     7858     7859 1
    8237     7858     7916 1
    8238     7858     7917 1
    8239     7859     7860 1
    8240     7859     7918 1
    8241     7859     7919 1
    8242     7860     7861 1
    8243     7860     7920 1
    8244     7860     7921 1
    8245     7861     7862 1
    8246     7861     7922 1
    8247     7861     7923 1
    8248     7862     7863 1
    8249     7862     7924 1
    8250     7862     7925 1
    8251     7863     7864 1
    8252     7863     7926 1
    8253     7863     7927 1
    8254     7864     7928 1
    8255     7864     7929 1
    8256     7864     7930 1
    8257     7931     7932 1
    8258     7931     7938 1
    8259     7931     7970 1
    8260     7932     7933 1
    8261     7932     7936 1
    8262     7933     7934 1
    8263     7933     7937 1
    8264     7934     7935 1
    8265     7935     7936 1
    8266     7935     7946 1
    8267     7936     7942 1
    8268     7937     7938 1
    8269     7937     7941 1
    8270     7938     7939 1
    8271     7939     7940 1
    8272     7939     7943 1
    8273     7940     7941 1
    8274     7944     7945 1
    8275     7944     7952 1
    8276     7945     7946 1
    8277     7945     7953 1
    8278     7946     7947 1
    8279     7947     7948 1
    8280     7947     7951 1
    8281     7948     7949 1
    8282     7949     7950 1
    8283     7950     7951 1
    8284     7951     7952 1
    8285     7952     8062 1
    8286     7954     7955 1
    8287     7954     7987 1
    8288     7954     7988 1
    8289     7954     7989 1
    8290     7955     7956 1
    8291     7955     7990 1
    8292     7955     7991 1
    8293     7956     7957 1
    8294     7956     7992 1
    8295     7956     7993 1
    8296     7957     7958 1
    8297     7957     7994 1
    8298     7957     7995 1
    8299     7958     7959 1
    8300     7958     7996 1
    8301     7958     7997 1
    8302     7959     7960 1
    8303     7959     7998 1
    8304     7959     7999 1
    8305     7960     7961 1
    8306     7960     8000 1
    8307     7960     8001 1
    8308     7961     7962 1
    8309     7961     8002 1
    8310     7961     8003 1
    8311     7962     7963 1
    8312     7962     7969 1
    8313     7962     8004 1
    8314     7963     7964 1
    8315     7963     8005 1
    8316     7963     8006 1
    8317     7964     7965 1
    8318     7964     8007 1
    8319     7964     8008 1
    8320     7965     7966 1
    8321     7965     8009 1
    8322     7965     8010 1
    8323     7966     7967 1
    8324     7966     8011 1
    8325     7966     8012 1
    8326     7967     7968 1
    8327     7967     8013 1
    8328     7967     8014 1
    8329     7968     8015 1
    8330     7968     8016 1
    8331     7968     8017 1
    8332     7969     7970 1
    8333     7969     8018 1
    8334     7969     8019 1
    8335     7970     7971 1
    8336     7971     7972 1
    8337     7971     8020 1
    8338     7971     8021 1
    8339     7972     7973 1
    8340     7972     7979 1
    8341     7972     8022 1
    8342     7973     7974 1
    8343     7973     8023 1
    8344     7973     8024 1
    8345     7974     7975 1
    8346     7974     8025 1
    8347     7974     8026 1
    8348     7975     7976 1
    8349     7975     8027 1
    8350     7975     8028 1
    8351     7976     7977 1
    8352     7976     8029 1
    8353     7976     8030 1
    8354     7977     7978 1
    8355     7977     8031 1
    8356     7977     8032 1
    8357     7978     8033 1
    8358     7978     8034 1
    8359     7978     8035 1
    8360     7979     7980 1
    8361     7979     8036 1
    8362     7979     8037 1
    8363     7980     7981 1
    8364     7980     8038 1
    8365     7980     8039 1
    8366     7981     7982 1
    8367     7981     8040 1
    8368     7981     8041 1
    8369     7982     7983 1
    8370     7982     8042 1
    8371     7982     8043 1
    8372     7983     7984 1
    8373     7983     8044 1
    8374     7983     8045 1
    8375     7984     7985 1
    8376     7984     8046 1
    8377     7984     8047 1
    8378     7985     7986 1
    8379     7985     8048 1
    8380     7985     8049 1
    8381     7986     8050 1
    8382     7986     8051 1
    8383     7986     8052 1
    8384     8053     8054 1
    8385     8053     8060 1
    8386     8053     8092 1
    8387     8054     8055 1
    8388     8054     8058 1
    8389     8055     8056 1
    8390     8055     8059 1
    8391     8056     8057 1
    8392     8057     8058 1
    8393     8057     8068 1
    8394     8058     8064 1
    8395     8059     8060 1
    8396     8059     8063 1
    8397     8060     8061 1
    8398     8061     8062 1
    8399     8061     8065 1
    8400     8062     8063 1
    8401     8066     8067 1
    8402     8066     8074 1
    8403     8067     8068 1
    8404     8067     8075 1
    8405     8068     8069 1
    8406     8069     8070 1
    8407     8069     8073 1
    8408     8070     8071 1
    8409     8071     8072 1
    8410     8072     8073 1
    8411     8073     8074 1
    8412     8074     8184 1
    8413     8076     8077 1
    8414     8076     8109 1
    8415     8076     8110 1
    8416     8076     8111 1
    8417     8077     8078 1
    8418     8077     8112 1
    8419     8077     8113 1
    8420     8078     8079 1
    8421     8078     8114 1
    8422     8078     8115 1
    8423     8079     8080 1
    8424     8079     8116 1
    8425     8079     8117 1
    8426     8080     8081 1
    8427     8080     8118 1
    8428     8080     8119 1
    8429     8081     8082 1
    8430     8081     8120 1
    8431     8081     8121 1
    8432     8082     8083 1
    8433     8082     8122 1
    8434     8082     8123 1
    8435     8083     8084 1
    8436     8083     8124 1
    8437     8083     8125 1
    8438     8084     8085 1
    8439     8084     8091 1
    8440     8084     8126 1
    8441     8085     8086 1
    8442     8085     8127 1
    8443     8085     8128 1
    8444     8086     8087 1
    8445     8086     8129 1
    8446     8086     8130 1
    8447     8087     8088 1
    8448     8087     8131 1
    8449     8087     8132 1
    8450     8088     8089 1
    8451     8088     8133 1
    8452     8088     8134 1
    8453     8089     8090 1
    8454     8089     8135 1
    8455     8089     8136 1
    8456     8090     8137 1
    8457     8090     8138 1
    8458     8090     8139 1
    8459     8091     8092 1
    8460     8091     8140 1
    8461     8091     8141 1
    8462     8092     8093 1
    8463     8093     8094 1
    8464     8093     8142 1
    8465     8093     8143 1
    8466     8094     8095 1
    8467     8094     8101 1
    8468     8094     8144 1
    8469     8095     8096 1
    8470     8095     8145 1
    8471     8095     8146 1
    8472     8096     8097 1
    8473     8096     8147 1
    8474     8096     8148 1
    8475     8097     8098 1
    8476     8097     8149 1
    8477     8097     8150 1
    8478     8098     8099 1
    8479     8098     8151 1
    8480     8098     8152 1
    8481     8099     8100 1
    8482     8099     8153 1
    8483     8099     8154 1
    8484     8100     8155 1
    8485     8100     8156 1
    8486     8100     8157 1
    8487     8101     8102 1
    8488     8101     8158 1
    8489     8101     8159 1
    8490     8102     8103 1
    8491     8102     8160 1
    8492     8102     8161 1
    8493     8103     8104 1
    8494     8103     8162 1
    8495     8103     8163 1
    8496     8104     8105 1
    8497     8104     8164 1
    8498     8104     8165 1
    8499     8105     8106 1
    8500     8105     8166 1
    8501     8105     8167 1
    8502     8106     8107 1
    8503     8106     8168 1
    8504     8106     8169 1
    8505     8107     8108 1
    8506     8107     8170 1
    8507     8107     8171 1
    8508     8108     8172 1
    8509     8108     8173 1
    8510     8108     8174 1
    8511     8175     8176 1
    8512     8175     8182 1
    8513     8175     8214 1
    8514     8176     8177 1
    8515     8176     8180 1
    8516     8177     8178 1
    8517     8177     8181 1
    8518     8178     8179 1
    8519     8179     8180 1
    8520     8179     8190 1
    8521     8180     8186 1
    8522     8181     8182 1
    8523     8181     8185 1
    8524     8182     8183 1
    8525     8183     8184 1
    8526     8183     8187 1
    8527     8184     8185 1
    8528     8188     8189 1
    8529     8188     8196 1
    8530     8189     8190 1
    8531     8189     8197 1
    8532     8190     8191 1
    8533     8191     8192 1
    8534     8191     8195 1
    8535     8192     8193 1
    8536     8193     8194 1
    8537     8194     8195 1
    8538     8195     8196 1
    8539     8196     8306 1
    8540     8198     8199 1
    8541     8198     8231 1
    8542     8198     8232 1
    8543     8198     8233 1
    8544     8199     8200 1
    8545     8199     8234 1
    8546     8199     8235 1
    8547     8200     8201 1
    8548     8200     8236 1
    8549     8200     8237 1
    8550     8201     8202 1
    8551     8201     8238 1
    8552     8201     8239 1
    8553     8202     8203 1
    8554     8202     8240 1
    8555     8202     8241 1
    8556     8203     8204 1
    8557     8203     8242 1
    8558     8203     8243 1
    8559     8204     8205 1
    8560     8204     8244 1
    8561     8204     8245 1
    8562     8205     8206 1
    8563     8205     8246 1
    8564     8205     8247 1
    8565     8206     8207 1
    8566     8206     8213 1
    8567     8206     8248 1
    8568     8207     8208 1
    8569     8207     8249 1
    8570     8207     8250 1
    8571     8208     8209 1
    8572     8208     8251 1
    8573     8208     8252 1
    8574     8209     8210 1
    8575     8209     8253 1
    8576     8209     8254 1
    8577     8210     8211 1
    8578     8210     8255 1
    8579     8210     8256 1
    8580     8211     8212 1
    8581     8211     8257 1
    8582     8211     8258 1
    8583     8212     8259 1
    8584     8212     8260 1
    8585     8212     8261 1
    8586     8213     8214 1
    8587     8213     8262 1
    8588     8213     8263 1
    8589     8214     8215 1
    8590     8215     8216 1
    8591     8215     8264 1
    8592     8215     8265 1
    8593     8216     8217 1
    8594     8216     8223 1
    8595     8216     8266 1
    8596     8217     8218 1
    8597     8217     8267 1
    8598     8217     8268 1
    8599     8218     8219 1
    8600     8218     8269 1
    8601     8218     8270 1
    8602     8219     8220 1
    8603     8219     8271 1
    8604     8219     8272 1
    8605     8220     8221 1
    8606     8220     8273 1
    8607     8220     8274 1
    8608     8221     8222 1
    8609     8221     8275 1
    8610     8221     8276 1
    8611     8222     8277 1
    8612     8222     8278 1
    8613     8222     8279 1
    8614     8223     8224 1
    8615     8223     8280 1
    8616     8223     8281 1
    8617     8224     8225 1
    8618     8224     8282 1
    8619     8224     8283 1
    8620     8225     8226 1
    8621     8225     8284 1
    8622     8225     8285 1
    8623     8226     8227 1
    8624     8226     8286 1
    8625     8226     8287 1
    8626     8227     8228 1
    8627     8227     8288 1
    8628     8227     8289 1
    8629     8228     8229 1
    8630     8228     8290 1
    8631     8228     8291 1
    8632     8229     8230 1
    8633     8229     8292 1
    8634     8229     8293 1
    8635     8230     8294 1
    8636     8230     8295 1
    8637     8230     8296 1
    8638     8297     8298 1
    8639     8297     8304 1
    8640     8297     8336 1
    8641     8298     8299 1
    8642     8298     8302 1
    8643     8299     8300 1
    8644     8299     8303 1
    8645     8300     8301 1
    8646     8301     8302 1
    8647     8301     8312 1
    8648     8302     8308 1
    8649     8303     8304 1
    8650     8303     8307 1
    8651     8304     8305 1
    8652     8305     8306 1
    8653     8305     8309 1
    8654     8306     8307 1
    8655     8310     8311 1
    8656     8310     8318 1
    8657     8311     8312 1
    8658     8311     8319 1
    8659     8312     8313 1
    8660     8313     8314 1
    8661     8313     8317 1
    8662     8314     8315 1
    8663     8315     8316 1
    8664     8316     8317 1
    8665     8317     8318 1
    8666     8318     8428 1
    8667     8320     8321 1
    8668     8320     8353 1
    8669     8320     8354 1
    8670     8320     8355 1
    8671     8321     8322 1
    8672     8321     8356 1
    8673     8321     8357 1
    8674     8322     8323 1
    8675     8322     8358 1
    8676     8322     8359 1
    8677     8323     8324 1
    8678     8323     8360 1
    8679     8323     8361 1
    8680     8324     8325 1
    8681     8324     8362 1
    8682     8324     8363 1
    8683     8325     8326 1
    8684     8325     8364 1
    8685     8325     8365 1
    8686     8326     8327 1
    8687     8326     8366 1
    8688     8326     8367 1
    8689     8327     8328 1
    8690     8327     8368 1
    8691     8327     8369 1
    8692     8328     8329 1
    8693     8328     8335 1
    8694     8328     8370 1
    8695     8329     8330 1
    8696     8329     8371 1
    8697     8329     8372 1
    8698     8330     8331 1
    8699     8330     8373 1
    8700     8330     8374 1
    8701     8331     8332 1
    8702     8331     8375 1
    8703     8331     8376 1
    8704     8332     8333 1
    8705     8332     8377 1
    8706     8332     8378 1
    8707     8333     8334 1
    8708     8333     8379 1
    8709     8333     8380 1
    8710     8334     8381 1
    8711     8334     8382 1
    8712     8334     8383 1
    8713     8335     8336 1
    8714     8335     8384 1
    8715     8335     8385 1
    8716     8336     8337 1
    8717     8337     8338 1
    8718     8337     8386 1
    8719     8337     8387 1
    8720     8338     8339 1
    8721     8338     8345 1
    8722     8338     8388 1
    8723     8339     8340 1
    8724     8339     8389 1
    8725     8339     8390 1
    8726     8340     8341 1
    8727     8340     8391 1
    8728     8340     8392 1
    8729     8341     8342 1
    8730     8341     8393 1
    8731     8341     8394 1
    8732     8342     8343 1
    8733     8342     8395 1
    8734     8342     8396 1
    8735     8343     8344 1
    8736     8343     8397 1
    8737     8343     8398 1
    8738     8344     8399 1
    8739     8344     8400 1
    8740     8344     8401 1
    8741     8345     8346 1
    8742     8345     8402 1
    8743     8345     8403 1
    8744     8346     8347 1
    8745     8346     8404 1
    8746     8346     8405 1
    8747     8347     8348 1
    8748     8347     8406 1
    8749     8347     8407 1
    8750     8348     8349 1
    8751     8348     8408 1
    8752     8348     8409 1
    8753     8349     8350 1
    8754     8349     8410 1
    8755     8349     8411 1
    8756     8350     8351 1
    8757     8350     8412 1
    8758     8350     8413 1
    8759     8351     8352 1
    8760     8351     8414 1
    8761     8351     8415 1
    8762     8352     8416 1
    8763     8352     8417 1
    8764     8352     8418 1
    8765     8419     8420 1
    8766     8419     8426 1
    8767     8419     8458 1
    8768     8420     8421 1
    8769     8420     8424 1
    8770     8421     8422 1
    8771     8421     8425 1
    8772     8422     8423 1
    8773     8423     8424 1
    8774     8423     8434 1
    8775     8424     8430 1
    8776     8425     8426 1
    8777     8425     8429 1
    8778     8426     8427 1
    8779     8427     8428 1
    8780     8427     8431 1
    8781     8428     8429 1
    8782     8432     8433 1
    8783     8432     8440 1
    8784     8433     8434 1
    8785     8433     8441 1
    8786     8434     8435 1
    8787     8435     8436 1
    8788     8435     8439 1
    8789     8436     8437 1
    8790     8437     8438 1
    8791     8438     8439 1
    8792     8439     8440 1
    8793     8440     8550 1
    8794     8442     8443 1
    8795     8442     8475 1
    8796     8442     8476 1
    8797     8442     8477 1
    8798     8443     8444 1
    8799     8443     8478 1
    8800     8443     8479 1
    8801     8444     8445 1
    8802     8444     8480 1
    8803     8444     8481 1
    8804     8445     8446 1
    8805     8445     8482 1
    8806     8445     8483 1
    8807     8446     8447 1
    8808     8446     8484 1
    8809     8446     8485 1
    8810     8447     8448 1
    8811     8447     8486 1
    8812     8447     8487 1
    8813     8448     8449 1
    8814     8448     8488 1
    8815     8448     8489 1
    8816     8449     8450 1
    8817     8449     8490 1
    8818     8449     8491 1
    8819     8450     8451 1
    8820     8450     8457 1
    8821     8450     8492 1
    8822     8451     8452 1
    8823     8451     8493 1
    8824     8451     8494 1
    8825     8452     8453 1
    8826     8452     8495 1
    8827     8452     8496 1
    8828     8453     8454 1
    8829     8453     8497 1
    8830     8453     8498 1
    8831     8454     8455 1
    8832     8454     8499 1
    8833     8454     8500 1
    8834     8455     8456 1
    8835     8455     8501 1
    8836     8455     8502 1
    8837     8456     8503 1
    8838     8456     8504 1
    8839     8456     8505 1
    8840     8457     8458 1
    8841     8457     8506 1
    8842     8457     8507 1
    8843     8458     8459 1
    8844     8459     8460 1
    8845     8459     8508 1
    8846     8459     8509 1
    8847     8460     8461 1
    8848     8460     8467 1
    8849     8460     8510 1
    8850     8461     8462 1
    8851     8461     8511 1
    8852     8461     8512 1
    8853     8462     8463 1
    8854     8462     8513 1
    8855     8462     8514 1
    8856     8463     8464 1
    8857     8463     8515 1
    8858     8463     8516 1
    8859     8464     8465 1
    8860     8464     8517 1
    8861     8464     8518 1
    8862     8465     8466 1
    8863     8465     8519 1
    8864     8465     8520 1
    8865     8466     8521 1
    8866     8466     8522 1
    8867     8466     8523 1
    8868     8467     8468 1
    8869     8467     8524 1
    8870     8467     8525 1
    8871     8468     8469 1
    8872     8468     8526 1
    8873     8468     8527 1
    8874     8469     8470 1
    8875     8469     8528 1
    8876     8469     8529 1
    8877     8470     8471 1
    8878     8470     8530 1
    8879     8470     8531 1
    8880     8471     8472 1
    8881     8471     8532 1
    8882     8471     8533 1
    8883     8472     8473 1
    8884     8472     8534 1
    8885     8472     8535 1
    8886     8473     8474 1
    8887     8473     8536 1
    8888     8473     8537 1
    8889     8474     8538 1
    8890     8474     8539 1
    8891     8474     8540 1
    8892     8541     8542 1
    8893     8541     8548 1
    8894     8541     8580 1
    8895     8542     8543 1
    8896     8542     8546 1
    8897     8543     8544 1
    8898     8543     8547 1
    8899     8544     8545 1
    8900     8545     8546 1
    8901     8545     8556 1
    8902     8546     8552 1
    8903     8547     8548 1
    8904     8547     8551 1
    8905     8548     8549 1
    8906     8549     8550 1
    8907     8549     8553 1
    8908     8550     8551 1
    8909     8554     8555 1
    8910     8554     8562 1
    8911     8555     8556 1
    8912     8555     8563 1
    8913     8556     8557 1
    8914     8557     8558 1
    8915     8557     8561 1
    8916     8558     8559 1
    8917     8559     8560 1
    8918     8560     8561 1
    8919     8561     8562 1
    8920     8562     8672 1
    8921     8564     8565 1
    8922     8564     8597 1
    8923     8564     8598 1
    8924     8564     8599 1
    8925     8565     8566 1
    8926     8565     8600 1
    8927     8565     8601 1
    8928     8566     8567 1
    8929     8566     8602 1
    8930     8566     8603 1
    8931     8567     8568 1
    8932     8567     8604 1
    8933     8567     8605 1
    8934     8568     8569 1
    8935     8568     8606 1
    8936     8568     8607 1
    8937     8569     8570 1
    8938     8569     8608 1
    8939     8569     8609 1
    8940     8570     8571 1
    8941     8570     8610 1
    8942     8570     8611 1
    8943     8571     8572 1
    8944     8571     8612 1
    8945     8571     8613 1
    8946     8572     8573 1
    8947     8572     8579 1
    8948     8572     8614 1
    8949     8573     8574 1
    8950     8573     8615 1
    8951     8573     8616 1
    8952     8574     8575 1
    8953     8574     8617 1
    8954     8574     8618 1
    8955     8575     8576 1
    8956     8575     8619 1
    8957     8575     8620 1
    8958     8576     8577 1
    8959     8576     8621 1
    8960     8576     8622 1
    8961     8577     8578 1
    8962     8577     8623 1
    8963     8577     8624 1
    8964     8578     8625 1
    8965     8578     8626 1
    8966     8578     8627 1
    8967     8579     8580 1
    8968     8579     8628 1
    8969     8579     8629 1
    8970     8580     8581 1
    8971     8581     8582 1
    8972     8581     8630 1
    8973     8581     8631 1
    8974     8582     8583 1
    8975     8582     8589 1
    8976     8582     8632 1
    8977     8583     8584 1
    8978     8583     8633 1
    8979     8583     8634 1
    8980     8584     8585 1
    8981     8584     8635 1
    8982     8584     8636 1
    8983     8585     8586 1
    8984     8585     8637 1
    8985     8585     8638 1
    8986     8586     8587 1
    8987     8586     8639 1
    8988     8586     8640 1
    8989     8587     8588 1
    8990     8587     8641 1
    8991     8587     8642 1
    8992     8588     8643 1
    8993     8588     8644 1
    8994     8588     8645 1
    8995     8589     8590 1
    8996     8589     8646 1
    8997     8589     8647 1
    8998     8590     8591 1
    8999     8590     8648 1
    9000     8590     8649 1
    9001     8591     8592 1
    9002     8591     8650 1
    9003     8591     8651 1
    9004     8592     8593 1
    9005     8592     8652 1
    9006     8592     8653 1
    9007     8593     8594 1
    9008     8593     8654 1
    9009     8593     8655 1
    9010     8594     8595 1
    9011     8594     8656 1
    9012     8594     8657 1
    9013     8595     8596 1
    9014     8595     8658 1
    9015     8595     8659 1
    9016     8596     8660 1
    9017     8596     8661 1
    9018     8596     8662 1
    9019     8663     8664 1
    9020     8663     8670 1
    9021     8663     8702 1
    9022     8664     8665 1
    9023     8664     8668 1
    9024     8665     8666 1
    9025     8665     8669 1
    9026     8666     8667 1
    9027     8667     8668 1
    9028     8667     8678 1
    9029     8668     8674 1
    9030     8669     8670 1
    9031     8669     8673 1
    9032     8670     8671 1
    9033     8671     8672 1
    9034     8671     8675 1
    9035     8672     8673 1
    9036     8676     8677 1
    9037     8676     8684 1
    9038     8677     8678 1
    9039     8677     8685 1
    9040     8678     8679 1
    9041     8679     8680 1
    9042     8679     8683 1
    9043     8680     8681 1
    9044     8681     8682 1
    9045     8682     8683 1
    9046     8683     8684 1
    9047     8684     8794 1
    9048     8686     8687 1
    9049     8686     8719 1
    9050     8686     8720 1
    9051     8686     8721 1
    9052     8687     8688 1
    9053     8687     8722 1
    9054     8687     8723 1
    9055     8688     8689 1
    9056     8688     8724 1
    9057     8688     8725 1
    9058     8689     8690 1
    9059     8689     8726 1
    9060     8689     8727 1
    9061     8690     8691 1
    9062     8690     8728 1
    9063     8690     8729 1
    9064     8691     8692 1
    9065     8691     8730 1
    9066     8691     8731 1
    9067     8692     8693 1
    9068     8692     8732 1
    9069     8692     8733 1
    9070     8693     8694 1
    9071     8693     8734 1
    9072     8693     8735 1
    9073     8694     8695 1
    9074     8694     8701 1
    9075     8694     8736 1
    9076     8695     8696 1
    9077     8695     8737 1
    9078     8695     8738 1
    9079     8696     8697 1
    9080     8696     8739 1
    9081     8696     8740 1
    9082     8697     8698 1
    9083     8697     8741 1
    9084     8697     8742 1
    9085     8698     8699 1
    9086     8698     8743 1
    9087     8698     8744 1
    9088     8699     8700 1
    9089     8699     8745 1
    9090     8699     8746 1
    9091     8700     8747 1
    9092     8700     8748 1
    9093     8700     8749 1
    9094     8701     8702 1
    9095     8701     8750 1
    9096     8701     8751 1
    9097     8702     8703 1
    9098     8703     8704 1
    9099     8703     8752 1
    9100     8703     8753 1
    9101     8704     8705 1
    9102     8704     8711 1
    9103     8704     8754 1
    9104     8705     8706 1
    9105     8705     8755 1
    9106     8705     8756 1
    9107     8706     8707 1
    9108     8706     8757 1
    9109     8706     8758 1
    9110     8707     8708 1
    9111     8707     8759 1
    9112     8707     8760 1
    9113     8708     8709 1
    9114     8708     8761 1
    9115     8708     8762 1
    9116     8709     8710 1
    9117     8709     8763 1
    9118     8709     8764 1
    9119     8710     8765 1
    9120     8710     8766 1
    9121     8710     8767 1
    9122     8711     8712 1
    9123     8711     8768 1
    9124     8711     8769 1
    9125     8712     8713 1
    9126     8712     8770 1
    9127     8712     8771 1
    9128     8713     8714 1
    9129     8713     8772 1
    9130     8713     8773 1
    9131     8714     8715 1
    9132     8714     8774 1
    9133     8714     8775 1
    9134     8715     8716 1
    9135     8715     8776 1
    9136     8715     8777 1
    9137     8716     8717 1
    9138     8716     8778 1
    9139     8716     8779 1
    9140     8717     8718 1
    9141     8717     8780 1
    9142     8717     8781 1
    9143     8718     8782 1
    9144     8718     8783 1
    9145     8718     8784 1
    9146     8785     8786 1
    9147     8785     8792 1
    9148     8785     8824 1
    9149     8786     8787 1
    9150     8786     8790 1
    9151     8787     8788 1
    9152     8787     8791 1
    9153     8788     8789 1
    9154     8789     8790 1
    9155     8789     8800 1
    9156     8790     8796 1
    9157     8791     8792 1
    9158     8791     8795 1
    9159     8792     8793 1
    9160     8793     8794 1
    9161     8793     8797 1
    9162     8794     8795 1
    9163     8798     8799 1
    9164     8798     8806 1
    9165     8799     8800 1
    9166     8799     8807 1
    9167     8800     8801 1
    9168     8801     8802 1
    9169     8801     8805 1
    9170     8802     8803 1
    9171     8803     8804 1
    9172     8804     8805 1
    9173     8805     8806 1
    9174     8806     8916 1
    9175     8808     8809 1
    9176     8808     8841 1
    9177     8808     8842 1
    9178     8808     8843 1
    9179     8809     8810 1
    9180     8809     8844 1
    9181     8809     8845 1
    9182     8810     8811 1
    9183     8810     8846 1
    9184     8810     8847 1
    9185     8811     8812 1
    9186     8811     8848 1
    9187     8811     8849 1
    9188     8812     8813 1
    9189     8812     8850 1
    9190     8812     8851 1
    9191     8813     8814 1
    9192     8813     8852 1
    9193     8813     8853 1
    9194     8814     8815 1
    9195     8814     8854 1
    9196     8814     8855 1
    9197     8815     8816 1
    9198     8815     8856 1
    9199     8815     8857 1
    9200     8816     8817 1
    9201     8816     8823 1
    9202     8816     8858 1
    9203     8817     8818 1
    9204     8817     8859 1
    9205     8817     8860 1
    9206     8818     8819 1
    9207     8818     8861 1
    9208     8818     8862 1
    9209     8819     8820 1
    9210     8819     8863 1
    9211     8819     8864 1
    9212     8820     8821 1
    9213     8820     8865 1
    9214     8820     8866 1
    9215     8821     8822 1
    9216     8821     8867 1
    9217     8821     8868 1
    9218     8822     8869 1
    9219     8822     8870 1
    9220     8822     8871 1
    9221     8823     8824 1
    9222     8823     8872 1
    9223     8823     8873 1
    9224     8824     8825 1
    9225     8825     8826 1
    9226     8825     8874 1
    9227     8825     8875 1
    9228     8826     8827 1
    9229     8826     8833 1
    9230     8826     8876 1
    9231     8827     8828 1
    9232     8827     8877 1
    9233     8827     8878 1
    9234     8828     8829 1
    9235     8828     8879 1
    9236     8828     8880 1
    9237     8829     8830 1
    9238     8829     8881 1
    9239     8829     8882 1
    9240     8830     8831 1
    9241     8830     8883 1
    9242     8830     8884 1
    9243     8831     8832 1
    9244     8831     8885 1
    9245     8831     8886 1
    9246     8832     8887 1
    9247     8832     8888 1
    9248     8832     8889 1
    9249     8833     8834 1
    9250     8833     8890 1
    9251     8833     8891 1
    9252     8834     8835 1
    9253     8834     8892 1
    9254     8834     8893 1
    9255     8835     8836 1
    9256     8835     8894 1
    9257     8835     8895 1
    9258     8836     8837 1
    9259     8836     8896 1
    9260     8836     8897 1
    9261     8837     8838 1
    9262     8837     8898 1
    9263     8837     8899 1
    9264     8838     8839 1
    9265     8838     8900 1
    9266     8838     8901 1
    9267     8839     8840 1
    9268     8839     8902 1
    9269     8839     8903 1
    9270     8840     8904 1
    9271     8840     8905 1
    9272     8840     8906 1
    9273     8907     8908 1
    9274     8907     8914 1
    9275     8907     8946 1
    9276     8908     8909 1
    9277     8908     8912 1
    9278     8909     8910 1
    9279     8909     8913 1
    9280     8910     8911 1
    9281     8911     8912 1
    9282     8911     8922 1
    9283     8912     8918 1
    9284     8913     8914 1
    9285     8913     8917 1
    9286     8914     8915 1
    9287     8915     8916 1
    9288     8915     8919 1
    9289     8916     8917 1
    9290     8920     8921 1
    9291     8920     8928 1
    9292     8921     8922 1
    9293     8921     8929 1
    9294     8922     8923 1
    9295     8923     8924 1
    9296     8923     8927 1
    9297     8924     8925 1
    9298     8925     8926 1
    9299     8926     8927 1
    9300     8927     8928 1
    9301     8928     9038 1
    9302     8930     8931 1
    9303     8930     8963 1
    9304     8930     8964 1
    9305     8930     8965 1
    9306     8931     8932 1
    9307     8931     8966 1
    9308     8931     8967 1
    9309     8932     8933 1
    9310     8932     8968 1
    9311     8932     8969 1
    9312     8933     8934 1
    9313     8933     8970 1
    9314     8933     8971 1
    9315     8934     8935 1
    9316     8934     8972 1
    9317     8934     8973 1
    9318     8935     8936 1
    9319     8935     8974 1
    9320     8935     8975 1
    9321     8936     8937 1
    9322     8936     8976 1
    9323     8936     8977 1
    9324     8937     8938 1
    9325     8937     8978 1
    9326     8937     8979 1
    9327     8938     8939 1
    9328     8938     8945 1
    9329     8938     8980 1
    9330     8939     8940 1
    9331     8939     8981 1
    9332     8939     8982 1
    9333     8940     8941 1
    9334     8940     8983 1
    9335     8940     8984 1
    9336     8941     8942 1
    9337     8941     8985 1
    9338     8941     8986 1
    9339     8942     8943 1
    9340     8942     8987 1
    9341     8942     8988 1
    9342     8943     8944 1
    9343     8943     8989 1
    9344     8943     8990 1
    9345     8944     8991 1
    9346     8944     8992 1
    9347     8944     8993 1
    9348     8945     8946 1
    9349     8945     8994 1
    9350     8945     8995 1
    9351     8946     8947 1
    9352     8947     8948 1
    9353     8947     8996 1
    9354     8947     8997 1
    9355     8948     8949 1
    9356     8948     8955 1
    9357     8948     8998 1
    9358     8949     8950 1
    9359     8949     8999 1
    9360     8949     9000 1
    9361     8950     8951 1
    9362     8950     9001 1
    9363     8950     9002 1
    9364     8951     8952 1
    9365     8951     9003 1
    9366     8951     9004 1
    9367     8952     8953 1
    9368     8952     9005 1
    9369     8952     9006 1
    9370     8953     8954 1
    9371     8953     9007 1
    9372     8953     9008 1
    9373     8954     9009 1
    9374     8954     9010 1
    9375     8954     9011 1
    9376     8955     8956 1
    9377     8955     9012 1
    9378     8955     9013 1
    9379     8956     8957 1
    9380     8956     9014 1
    9381     8956     9015 1
    9382     8957     8958 1
    9383     8957     9016 1
    9384     8957     9017 1
    9385     8958     8959 1
    9386     8958     9018 1
    9387     8958     9019 1
    9388     8959     8960 1
    9389     8959     9020 1
    9390     8959     9021 1
    9391     8960     8961 1
    9392     8960     9022 1
    9393     8960     9023 1
    9394     8961     8962 1
    9395     8961     9024 1
    9396     8961     9025 1
    9397     8962     9026 1
    9398     8962     9027 1
    9399     8962     9028 1
    9400     9029     9030 1
    9401     9029     9036 1
    9402     9029     9068 1
    9403     9030     9031 1
    9404     9030     9034 1
    9405     9031     9032 1
    9406     9031     9035 1
    9407     9032     9033 1
    9408     9033     9034 1
    9409     9033     9044 1
    9410     9034     9040 1
    9411     9035     9036 1
    9412     9035     9039 1
    9413     9036     9037 1
    9414     9037     9038 1
    9415     9037     9041 1
    9416     9038     9039 1
    9417     9042     9043 1
    9418     9042     9050 1
    9419     9043     9044 1
    9420     9043     9051 1
    9421     9044     9045 1
    9422     9045     9046 1
    9423     9045     9049 1
    9424     9046     9047 1
    9425     9047     9048 1
    9426     9048     9049 1
    9427     9049     9050 1
    9428     9050     9160 1
    9429     9052     9053 1
    9430     9052     9085 1
    9431     9052     9086 1
    9432     9052     9087 1
    9433     9053     9054 1
    9434     9053     9088 1
    9435     9053     9089 1
    9436     9054     9055 1
    9437     9054     9090 1
    9438     9054     9091 1
    9439     9055     9056 1
    9440     9055     9092 1
    9441     9055     9093 1
    9442     9056     9057 1
    9443     9056     9094 1
    9444     9056     9095 1
    9445     9057     9058 1
    9446     9057     9096 1
    9447     9057     9097 1
    9448     9058     9059 1
    9449     9058     9098 1
    9450     9058     9099 1
    9451     9059     9060 1
    9452     9059     9100 1
    9453     9059     9101 1
    9454     9060     9061 1
    9455     9060     9067 1
    9456     9060     9102 1
    9457     9061     9062 1
    9458     9061     9103 1
    9459     9061     9104 1
    9460     9062     9063 1
    9461     9062     9105 1
    9462     9062     9106 1
    9463     9063     9064 1
    9464     9063     9107 1
    9465     9063     9108 1
    9466     9064     9065 1
    9467     9064     9109 1
    9468     9064     9110 1
    9469     9065     9066 1
    9470     9065     9111 1
    9471     9065     9112 1
    9472     9066     9113 1
    9473     9066     9114 1
    9474     9066     9115 1
    9475     9067     9068 1
    9476     9067     9116 1
    9477     9067     9117 1
    9478     9068     9069 1
    9479     9069     9070 1
    9480     9069     9118 1
    9481     9069     9119 1
    9482     9070     9071 1
    9483     9070     9077 1
    9484     9070     9120 1
    9485     9071     9072 1
    9486     9071     9121 1
    9487     9071     9122 1
    9488     9072     9073 1
    9489     9072     9123 1
    9490     9072     9124 1
    9491     9073     9074 1
    9492     9073     9125 1
    9493     9073     9126 1
    9494     9074     9075 1
    9495     9074     9127 1
    9496     9074     9128 1
    9497     9075     9076 1
    9498     9075     9129 1
    9499     9075     9130 1
    9500     9076     9131 1
    9501     9076     9132 1
    9502     9076     9133 1
    9503     9077     9078 1
    9504     9077     9134 1
    9505     9077     9135 1
    9506     9078     9079 1
    9507     9078     9136 1
    9508     9078     9137 1
    9509     9079     9080 1
    9510     9079     9138 1
    9511     9079     9139 1
    9512     9080     9081 1
    9513     9080     9140 1
    9514     9080     9141 1
    9515     9081     9082 1
    9516     9081     9142 1
    9517     9081     9143 1
    9518     9082     9083 1
    9519     9082     9144 1
    9520     9082     9145 1
    9521     9083     9084 1
    9522     9083     9146 1
    9523     9083     9147 1
    9524     9084     9148 1
    9525     9084     9149 1
    9526     9084     9150 1
    9527     9151     9152 1
    9528     9151     9158 1
    9529     9151     9190 1
    9530     9152     9153 1
    9531     9152     9156 1
    9532     9153     9154 1
    9533     9153     9157 1
    9534     9154     9155 1
    9535     9155     9156 1
    9536     9155     9166 1
    9537     9156     9162 1
    9538     9157     9158 1
    9539     9157     9161 1
    9540     9158     9159 1
    9541     9159     9160 1
    9542     9159     9163 1
    9543     9160     9161 1
    9544     9164     9165 1
    9545     9164     9172 1
    9546     9165     9166 1
    9547     9165     9173 1
    9548     9166     9167 1
    9549     9167     9168 1
    9550     9167     9171 1
    9551     9168     9169 1
    9552     9169     9170 1
    9553     9170     9171 1
    9554     9171     9172 1
    9555     9172     9282 1
    9556     9174     9175 1
    9557     9174     9207 1
    9558     9174     9208 1
    9559     9174     9209 1
    9560     9175     9176 1
    9561     9175     9210 1
    9562     9175     9211 1
    9563     9176     9177 1
    9564     9176     9212 1
    9565     9176     9213 1
    9566     9177     9178 1
    9567     9177     9214 1
    9568     9177     9215 1
    9569     9178     9179 1
    9570     9178     9216 1
    9571     9178     9217 1
    9572     9179     9180 1
    9573     9179     9218 1
    9574     9179     9219 1
    9575     9180     9181 1
    9576     9180     9220 1
    9577     9180     9221 1
    9578     9181     9182 1
    9579     9181     9222 1
    9580     9181     9223 1
    9581     9182     9183 1
    9582     9182     9189 1
    9583     9182     9224 1
    9584     9183     9184 1
    9585     9183     9225 1
    9586     9183     9226 1
    9587     9184     9185 1
    9588     9184     9227 1
    9589     9184     9228 1
    9590     9185     9186 1
    9591     9185     9229 1
    9592     9185     9230 1
    9593     9186     9187 1
    9594     9186     9231 1
    9595     9186     9232 1
    9596     9187     9188 1
    9597     9187     9233 1
    9598     9187     9234 1
    9599     9188     9235 1
    9600     9188     9236 1
    9601     9188     9237 1
    9602     9189     9190 1
    9603     9189     9238 1
    9604     9189     9239 1
    9605     9190     9191 1
    9606     9191     9192 1
    9607     9191     9240 1
    9608     9191     9241 1
    9609     9192     9193 1
    9610     9192     9199 1
    9611     9192     9242 1
    9612     9193     9194 1
    9613     9193     9243 1
    9614     9193     9244 1
    9615     9194     9195 1
    9616     9194     9245 1
    9617     9194     9246 1
    9618     9195     9196 1
    9619     9195     9247 1
    9620     9195     9248 1
    9621     9196     9197 1
    9622     9196     9249 1
    9623     9196     9250 1
    9624     9197     9198 1
    9625     9197     9251 1
    9626     9197     9252 1
    9627     9198     9253 1
    9628     9198     9254 1
    9629     9198     9255 1
    9630     9199     9200 1
    9631     9199     9256 1
    9632     9199     9257 1
    9633     9200     9201 1
    9634     9200     9258 1
    9635     9200     9259 1
    9636     9201     9202 1
    9637     9201     9260 1
    9638     9201     9261 1
    9639     9202     9203 1
    9640     9202     9262 1
    9641     9202     9263 1
    9642     9203     9204 1
    9643     9203     9264 1
    9644     9203     9265 1
    9645     9204     9205 1
    9646     9204     9266 1
    9647     9204     9267 1
    9648     9205     9206 1
    9649     9205     9268 1
    9650     9205     9269 1
    9651     9206     9270 1
    9652     9206     9271 1
    9653     9206     9272 1
    9654     9273     9274 1
    9655     9273     9280 1
    9656     9273     9312 1
    9657     9274     9275 1
    9658     9274     9278 1
    9659     9275     9276 1
    9660     9275     9279 1
    9661     9276     9277 1
    9662     9277     9278 1
    9663     9277     9288 1
    9664     9278     9284 1
    9665     9279     9280 1
    9666     9279     9283 1
    9667     9280     9281 1
    9668     9281     9282 1
    9669     9281     9285 1
    9670     9282     9283 1
    9671     9286     9287 1
    9672     9286     9294 1
    9673     9287     9288 1
    9674     9287     9295 1
    9675     9288     9289 1
    9676     9289     9290 1
    9677     9289     9293 1
    9678     9290     9291 1
    9679     9291     9292 1
    9680     9292     9293 1
    9681     9293     9294 1
    9682     9294     9404 1
    9683     9296     9297 1
    9684     9296     9329 1
    9685     9296     9330 1
    9686     9296     9331 1
    9687     9297     9298 1
    9688     9297     9332 1
    9689     9297     9333 1
    9690     9298     9299 1
    9691     9298     9334 1
    9692     9298     9335 1
    9693     9299     9300 1
    9694     9299     9336 1
    9695     9299     9337 1
    9696     9300     9301 1
    9697     9300     9338 1
    9698     9300     9339 1
    9699     9301     9302 1
    9700     9301     9340 1
    9701     9301     9341 1
    9702     9302     9303 1
    9703     9302     9342 1
    9704     9302     9343 1
    9705     9303     9304 1
    9706     9303     9344 1
    9707     9303     9345 1
    9708     9304     9305 1
    9709     9304     9311 1
    9710     9304     9346 1
    9711     9305     9306 1
    9712     9305     9347 1
    9713     9305     9348 1
    9714     9306     9307 1
    9715     9306     9349 1
    9716     9306     9350 1
    9717     9307     9308 1
    9718     9307     9351 1
    9719     9307     9352 1
    9720     9308     9309 1
    9721     9308     9353 1
    9722     9308     9354 1
    9723     9309     9310 1
    9724     9309     9355 1
    9725     9309     9356 1
    9726     9310     9357 1
    9727     9310     9358 1
    9728     9310     9359 1
    9729     9311     9312 1
    9730     9311     9360 1
    9731     9311     9361 1
    9732     9312     9313 1
    9733     9313     9314 1
    9734     9313     9362 1
    9735     9313     9363 1
    9736     9314     9315 1
    9737     9314     9321 1
    9738     9314     9364 1
    9739     9315     9316 1
    9740     9315     9365 1
    9741     9315     9366 1
    9742     9316     9317 1
    9743     9316     9367 1
    9744     9316     9368 1
    9745     9317     9318 1
    9746     9317     9369 1
    9747     9317     9370 1
    9748     9318     9319 1
    9749     9318     9371 1
    9750     9318     9372 1
    9751     9319     9320 1
    9752     9319     9373 1
    9753     9319     9374 1
    9754     9320     9375 1
    9755     9320     9376 1
    9756     9320     9377 1
    9757     9321     9322 1
    9758     9321     9378 1
    9759     9321     9379 1
    9760     9322     9323 1
    9761     9322     9380 1
    9762     9322     9381 1
    9763     9323     9324 1
    9764     9323     9382 1
    9765     9323     9383 1
    9766     9324     9325 1
    9767     9324     9384 1
    9768     9324     9385 1
    9769     9325     9326 1
    9770     9325     9386 1
    9771     9325     9387 1
    9772     9326     9327 1
    9773     9326     9388 1
    9774     9326     9389 1
    9775     9327     9328 1
    9776     9327     9390 1
    9777     9327     9391 1
    9778     9328     9392 1
    9779     9328     9393 1
    9780     9328     9394 1
    9781     9395     9396 1
    9782     9395     9402 1
    9783     9395     9434 1
    9784     9396     9397 1
    9785     9396     9400 1
    9786     9397     9398 1
    9787     9397     9401 1
    9788     9398     9399 1
    9789     9399     9400 1
    9790     9399     9410 1
    9791     9400     9406 1
    9792     9401     9402 1
    9793     9401     9405 1
    9794     9402     9403 1
    9795     9403     9404 1
    9796     9403     9407 1
    9797     9404     9405 1
    9798     9408     9409 1
    9799     9408     9416 1
    9800     9409     9410 1
    9801     9409     9417 1
    9802     9410     9411 1
    9803     9411     9412 1
    9804     9411     9415 1
    9805     9412     9413 1
    9806     9413     9414 1
    9807     9414     9415 1
    9808     9415     9416 1
    9809     9416     9526 1
    9810     9418     9419 1
    9811     9418     9451 1
    9812     9418     9452 1
    9813     9418     9453 1
    9814     9419     9420 1
    9815     9419     9454 1
    9816     9419     9455 1
    9817     9420     9421 1
    9818     9420     9456 1
    9819     9420     9457 1
    9820     9421     9422 1
    9821     9421     9458 1
    9822     9421     9459 1
    9823     9422     9423 1
    9824     9422     9460 1
    9825     9422     9461 1
    9826     9423     9424 1
    9827     9423     9462 1
    9828     9423     9463 1
    9829     9424     9425 1
    9830     9424     9464 1
    9831     9424     9465 1
    9832     9425     9426 1
    9833     9425     9466 1
    9834     9425     9467 1
    9835     9426     9427 1
    9836     9426     9433 1
    9837     9426     9468 1
    9838     9427     9428 1
    9839     9427     9469 1
    9840     9427     9470 1
    9841     9428     9429 1
    9842     9428     9471 1
    9843     9428     9472 1
    9844     9429     9430 1
    9845     9429     9473 1
    9846     9429     9474 1
    9847     9430     9431 1
    9848     9430     9475 1
    9849     9430     9476 1
    9850     9431     9432 1
    9851     9431     9477 1
    9852     9431     9478 1
    9853     9432     9479 1
    9854     9432     9480 1
    9855     9432     9481 1
    9856     9433     9434 1
    9857     9433     9482 1
    9858     9433     9483 1
    9859     9434     9435 1
    9860     9435     9436 1
    9861     9435     9484 1
    9862     9435     9485 1
    9863     9436     9437 1
    9864     9436     9443 1
    9865     9436     9486 1
    9866     9437     9438 1
    9867     9437     9487 1
    9868     9437     9488 1
    9869     9438     9439 1
    9870     9438     9489 1
    9871     9438     9490 1
    9872     9439     9440 1
    9873     9439     9491 1
    9874     9439     9492 1
    9875     9440     9441 1
    9876     9440     9493 1
    9877     9440     9494 1
    9878     9441     9442 1
    9879     9441     9495 1
    9880     9441     9496 1
    9881     9442     9497 1
    9882     9442     9498 1
    9883     9442     9499 1
    9884     9443     9444 1
    9885     9443     9500 1
    9886     9443     9501 1
    9887     9444     9445 1
    9888     9444     9502 1
    9889     9444     9503 1
    9890     9445     9446 1
    9891     9445     9504 1
    9892     9445     9505 1
    9893     9446     9447 1
    9894     9446     9506 1
    9895     9446     9507 1
    9896     9447     9448 1
    9897     9447     9508 1
    9898     9447     9509 1
    9899     9448     9449 1
    9900     9448     9510 1
    9901     9448     9511 1
    9902     9449     9450 1
    9903     9449     9512 1
    9904     9449     9513 1
    9905     9450     9514 1
    9906     9450     9515 1
    9907     9450     9516 1
    9908     9517     9518 1
    9909     9517     9524 1
    9910     9517     9556 1
    9911     9518     9519 1
    9912     9518     9522 1
    9913     9519     9520 1
    9914     9519     9523 1
    9915     9520     9521 1
    9916     9521     9522 1
    9917     9521     9532 1
    9918     9522     9528 1
    9919     9523     9524 1
    9920     9523     9527 1
    9921     9524     9525 1
    9922     9525     9526 1
    9923     9525     9529 1
    9924     9526     9527 1
    9925     9530     9531 1
    9926     9530     9538 1
    9927     9531     9532 1
    9928     9531     9539 1
    9929     9532     9533 1
    9930     9533     9534 1
    9931     9533     9537 1
    9932     9534     9535 1
    9933     9535     9536 1
    9934     9536     9537 1
    9935     9537     9538 1
    9936     9538     9648 1
    9937     9540     9541 1
    9938     9540     9573 1
    9939     9540     9574 1
    9940     9540     9575 1
    9941     9541     9542 1
    9942     9541     9576 1
    9943     9541     9577 1
    9944     9542     9543 1
    9945     9542     9578 1
    9946     9542     9579 1
    9947     9543     9544 1
    9948     9543     9580 1
    9949     9543     9581 1
    9950     9544     9545 1
    9951     9544     9582 1
    9952     9544     9583 1
    9953     9545     9546 1
    9954     9545     9584 1
    9955     9545     9585 1
    9956     9546     9547 1
    9957     9546     9586 1
    9958     9546     9587 1
    9959     9547     9548 1
    9960     9547     9588 1
    9961     9547     9589 1
    9962     9548     9549 1
    9963     9548     9555 1
    9964     9548     9590 1
    9965     9549     9550 1
    9966     9549     9591 1
    9967     9549     9592 1
    9968     9550     9551 1
    9969     9550     9593 1
    9970     9550     9594 1
    9971     9551     9552 1
    9972     9551     9595 1
    9973     9551     9596 1
    9974     9552     9553 1
    9975     9552     9597 1
    9976     9552     9598 1
    9977     9553     9554 1
    9978     9553     9599 1
    9979     9553     9600 1
    9980     9554     9601 1
    9981     9554     9602 1
    9982     9554     9603 1
    9983     9555     9556 1
    9984     9555     9604 1
    9985     9555     9605 1
    9986     9556     9557 1
    9987     9557     9558 1
    9988     9557     9606 1
    9989     9557     9607 1
    9990     9558     9559 1
    9991     9558     9565 1
    9992     9558     9608 1
    9993     9559     9560 1
    9994     9559     9609 1
    9995     9559     9610 1
    9996     9560     9561 1
    9997     9560     9611 1
    9998     9560     9612 1
    9999     9561     9562 1
   10000     9561     9613 1
   10001     9561     9614 1
   10002     9562     9563 1
   10003     9562     9615 1
   10004     9562     9616 1
   10005     9563     9564 1
   10006     9563     9617 1
   10007     9563     9618 1
   10008     9564     9619 1
   10009     9564     9620 1
   10010     9564     9621 1
   10011     9565     9566 1
   10012     9565     9622 1
   10013     9565     9623 1
   10014     9566     9567 1
   10015     9566     9624 1
   10016     9566     9625 1
   10017     9567     9568 1
   10018     9567     9626 1
   10019     9567     9627 1
   10020     9568     9569 1
   10021     9568     9628 1
   10022     9568     9629 1
   10023     9569     9570 1
   10024     9569     9630 1
   10025     9569     9631 1
   10026     9570     9571 1
   10027     9570     9632 1
   10028     9570     9633 1
   10029     9571     9572 1
   10030     9571     9634 1
   10031     9571     9635 1
   10032     9572     9636 1
   10033     9572     9637 1
   10034     9572     9638 1
   10035     9639     9640 1
   10036     9639     9646 1
   10037     9639     9678 1
   10038     9640     9641 1
   10039     9640     9644 1
   10040     9641     9642 1
   10041     9641     9645 1
   10042     9642     9643 1
   10043     9643     9644 1
   10044     9643     9654 1
   10045     9644     9650 1
   10046     9645     9646 1
   10047     9645     9649 1
   10048     9646     9647 1
   10049     9647     9648 1
   10050     9647     9651 1
   10051     9648     9649 1
   10052     9652     9653 1
   10053     9652     9660 1
   10054     9653     9654 1
   10055     9653     9661 1
   10056     9654     9655 1
   10057     9655     9656 1
   10058     9655     9659 1
   10059     9656     9657 1
   10060     9657     9658 1
   10061     9658     9659 1
   10062     9659     9660 1
   10063     9660     9770 1
   10064     9662     9663 1
   10065     9662     9695 1
   10066     9662     9696 1
   10067     9662     9697 1
   10068     9663     9664 1
   10069     9663     9698 1
   10070     9663     9699 1
   10071     9664     9665 1
   10072     9664     9700 1
   10073     9664     9701 1
   10074     9665     9666 1
   10075     9665     9702 1
   10076     9665     9703 1
   10077     9666     9667 1
   10078     9666     9704 1
   10079     9666     9705 1
   10080     9667     9668 1
   10081     9667     9706 1
   10082     9667     9707 1
   10083     9668     9669 1
   10084     9668     9708 1
   10085     9668     9709 1
   10086     9669     9670 1
   10087     9669     9710 1
   10088     9669     9711 1
   10089     9670     9671 1
   10090     9670     9677 1
   10091     9670     9712 1
   10092     9671     9672 1
   10093     9671     9713 1
   10094     9671     9714 1
   10095     9672     9673 1
   10096     9672     9715 1
   10097     9672     9716 1
   10098     9673     9674 1
   10099     9673     9717 1
   10100     9673     9718 1
   10101     9674     9675 1
   10102     9674     9719 1
   10103     9674     9720 1
   10104     9675     9676 1
   10105     9675     9721 1
   10106     9675     9722 1
   10107     9676     9723 1
   10108     9676     9724 1
   10109     9676     9725 1
   10110     9677     9678 1
   10111     9677     9726 1
   10112     9677     9727 1
   10113     9678     9679 1
   10114     9679     9680 1
   10115     9679     9728 1
   10116     9679     9729 1
   10117     9680     9681 1
   10118     9680     9687 1
   10119     9680     9730 1
   10120     9681     9682 1
   10121     9681     9731 1
   10122     9681     9732 1
   10123     9682     9683 1
   10124     9682     9733 1
   10125     9682     9734 1
   10126     9683     9684 1
   10127     9683     9735 1
   10128     9683     9736 1
   10129     9684     9685 1
   10130     9684     9737 1
   10131     9684     9738 1
   10132     9685     9686 1
   10133     9685     9739 1
   10134     9685     9740 1
   10135     9686     9741 1
   10136     9686     9742 1
   10137     9686     9743 1
   10138     9687     9688 1
   10139     9687     9744 1
   10140     9687     9745 1
   10141     9688     9689 1
   10142     9688     9746 1
   10143     9688     9747 1
   10144     9689     9690 1
   10145     9689     9748 1
   10146     9689     9749 1
   10147     9690     9691 1
   10148     9690     9750 1
   10149     9690     9751 1
   10150     9691     9692 1
   10151     9691     9752 1
   10152     9691     9753 1
   10153     9692     9693 1
   10154     9692     9754 1
   10155     9692     9755 1
   10156     9693     9694 1
   10157     9693     9756 1
   10158     9693     9757 1
   10159     9694     9758 1
   10160     9694     9759 1
   10161     9694     9760 1
   10162     9761     9762 1
   10163     9761     9768 1
   10164     9761     9800 1
   10165     9762     9763 1
   10166     9762     9766 1
   10167     9763     9764 1
   10168     9763     9767 1
   10169     9764     9765 1
   10170     9765     9766 1
   10171     9765     9776 1
   10172     9766     9772 1
   10173     9767     9768 1
   10174     9767     9771 1
   10175     9768     9769 1
   10176     9769     9770 1
   10177     9769     9773 1
   10178     9770     9771 1
   10179     9774     9775 1
   10180     9774     9782 1
   10181     9775     9776 1
   10182     9775     9783 1
   10183     9776     9777 1
   10184     9777     9778 1
   10185     9777     9781 1
   10186     9778     9779 1
   10187     9779     9780 1
   10188     9780     9781 1
   10189     9781     9782 1
   10190     9782     9892 1
   10191     9784     9785 1
   10192     9784     9817 1
   10193     9784     9818 1
   10194     9784     9819 1
   10195     9785     9786 1
   10196     9785     9820 1
   10197     9785     9821 1
   10198     9786     9787 1
   10199     9786     9822 1
   10200     9786     9823 1
   10201     9787     9788 1
   10202     9787     9824 1
   10203     9787     9825 1
   10204     9788     9789 1
   10205     9788     9826 1
   10206     9788     9827 1
   10207     9789     9790 1
   10208     9789     9828 1
   10209     9789     9829 1
   10210     9790     9791 1
   10211     9790     9830 1
   10212     9790     9831 1
   10213     9791     9792 1
   10214     9791     9832 1
   10215     9791     9833 1
   10216     9792     9793 1
   10217     9792     9799 1
   10218     9792     9834 1
   10219     9793     9794 1
   10220     9793     9835 1
   10221     9793     9836 1
   10222     9794     9795 1
   10223     9794     9837 1
   10224     9794     9838 1
   10225     9795     9796 1
   10226     9795     9839 1
   10227     9795     9840 1
   10228     9796     9797 1
   10229     9796     9841 1
   10230     9796     9842 1
   10231     9797     9798 1
   10232     9797     9843 1
   10233     9797     9844 1
   10234     9798     9845 1
   10235     9798     9846 1
   10236     9798     9847 1
   10237     9799     9800 1
   10238     9799     9848 1
   10239     9799     9849 1
   10240     9800     9801 1
   10241     9801     9802 1
   10242     9801     9850 1
   10243     9801     9851 1
   10244     9802     9803 1
   10245     9802     9809 1
   10246     9802     9852 1
   10247     9803     9804 1
   10248     9803     9853 1
   10249     9803     9854 1
   10250     9804     9805 1
   10251     9804     9855 1
   10252     9804     9856 1
   10253     9805     9806 1
   10254     9805     9857 1
   10255     9805     9858 1
   10256     9806     9807 1
   10257     9806     9859 1
   10258     9806     9860 1
   10259     9807     9808 1
   10260     9807     9861 1
   10261     9807     9862 1
   10262     9808     9863 1
   10263     9808     9864 1
   10264     9808     9865 1
   10265     9809     9810 1
   10266     9809     9866 1
   10267     9809     9867 1
   10268     9810     9811 1
   10269     9810     9868 1
   10270     9810     9869 1
   10271     9811     9812 1
   10272     9811     9870 1
   10273     9811     9871 1
   10274     9812     9813 1
   10275     9812     9872 1
   10276     9812     9873 1
   10277     9813     9814 1
   10278     9813     9874 1
   10279     9813     9875 1
   10280     9814     9815 1
   10281     9814     9876 1
   10282     9814     9877 1
   10283     9815     9816 1
   10284     9815     9878 1
   10285     9815     9879 1
   10286     9816     9880 1
   10287     9816     9881 1
   10288     9816     9882 1
   10289     9883     9884 1
   10290     9883     9890 1
   10291     9883     9922 1
   10292     9884     9885 1
   10293     9884     9888 1
   10294     9885     9886 1
   10295     9885     9889 1
   10296     9886     9887 1
   10297     9887     9888 1
   10298     9887     9898 1
   10299     9888     9894 1
   10300     9889     9890 1
   10301     9889     9893 1
   10302     9890     9891 1
   10303     9891     9892 1
   10304     9891     9895 1
   10305     9892     9893 1
   10306     9896     9897 1
   10307     9896     9904 1
   10308     9897     9898 1
   10309     9897     9905 1
   10310     9898     9899 1
   10311     9899     9900 1
   10312     9899     9903 1
   10313     9900     9901 1
   10314     9901     9902 1
   10315     9902     9903 1
   10316     9903     9904 1
   10317     9904    10014 1
   10318     9906     9907 1
   10319     9906     9939 1
   10320     9906     9940 1
   10321     9906     9941 1
   10322     9907     9908 1
   10323     9907     9942 1
   10324     9907     9943 1
   10325     9908     9909 1
   10326     9908     9944 1
   10327     9908     9945 1
   10328     9909     9910 1
   10329     9909     9946 1
   10330     9909     9947 1
   10331     9910     9911 1
   10332     9910     9948 1
   10333     9910     9949 1
   10334     9911     9912 1
   10335     9911     9950 1
   10336     9911     9951 1
   10337     9912     9913 1
   10338     9912     9952 1
   10339     9912     9953 1
   10340     9913     9914 1
   10341     9913     9954 1
   10342     9913     9955 1
   10343     9914     9915 1
   10344     9914     9921 1
   10345     9914     9956 1
   10346     9915     9916 1
   10347     9915     9957 1
   10348     9915     9958 1
   10349     9916     9917 1
   10350     9916     9959 1
   10351     9916     9960 1
   10352     9917     9918 1
   10353     9917     9961 1
   10354     9917     9962 1
   10355     9918     9919 1
   10356     9918     9963 1
   10357     9918     9964 1
   10358     9919     9920 1
   10359     9919     9965 1
   10360     9919     9966 1
   10361     9920     9967 1
   10362     9920     9968 1
   10363     9920     9969 1
   10364     9921     9922 1
   10365     9921     9970 1
   10366     9921     9971 1
   10367     9922     9923 1
   10368     9923     9924 1
   10369     9923     9972 1
   10370     9923     9973 1
   10371     9924     9925 1
   10372     9924     9931 1
   10373     9924     9974 1
   10374     9925     9926 1
   10375     9925     9975 1
   10376     9925     9976 1
   10377     9926     9927 1
   10378     9926     9977 1
   10379     9926     9978 1
   10380     9927     9928 1
   10381     9927     9979 1
   10382     9927     9980 1
   10383     9928     9929 1
   10384     9928     9981 1
   10385     9928     9982 1
   10386     9929     9930 1
   10387     9929     9983 1
   10388     9929     9984 1
   10389     9930     9985 1
   10390     9930     9986 1
   10391     9930     9987 1
   10392     9931     9932 1
   10393     9931     9988 1
   10394     9931     9989 1
   10395     9932     9933 1
   10396     9932     9990 1
   10397     9932     9991 1
   10398     9933     9934 1
   10399     9933     9992 1
   10400     9933     9993 1
   10401     9934     9935 1
   10402     9934     9994 1
   10403     9934     9995 1
   10404     9935     9936 1
   10405     9935     9996 1
   10406     9935     9997 1
   10407     9936     9937 1
   10408     9936     9998 1
   10409     9936     9999 1
   10410     9937     9938 1
   10411     9937    10000 1
   10412     9937    10001 1
   10413     9938    10002 1
   10414     9938    10003 1
   10415     9938    10004 1
   10416    10005    10006 1
   10417    10005    10012 1
   10418    10005    10044 1
   10419    10006    10007 1
   10420    10006    10010 1
   10421    10007    10008 1
   10422    10007    10011 1
   10423    10008    10009 1
   10424    10009    10010 1
   10425    10009    10020 1
   10426    10010    10016 1
   10427    10011    10012 1
   10428    10011    10015 1
   10429    10012    10013 1
   10430    10013    10014 1
   10431    10013    10017 1
   10432    10014    10015 1
   10433    10018    10019 1
   10434    10018    10026 1
   10435    10019    10020 1
   10436    10019    10027 1
   10437    10020    10021 1
   10438    10021    10022 1
   10439    10021    10025 1
   10440    10022    10023 1
   10441    10023    10024 1
   10442    10024    10025 1
   10443    10025    10026 1
   10444    10026    10136 1
   10445    10028    10029 1
   10446    10028    10061 1
   10447    10028    10062 1
   10448    10028    10063 1
   10449    10029    10030 1
   10450    10029    10064 1
   10451    10029    10065 1
   10452    10030    10031 1
   10453    10030    10066 1
   10454    10030    10067 1
   10455    10031    10032 1
   10456    10031    10068 1
   10457    10031    10069 1
   10458    10032    10033 1
   10459    10032    10070 1
   10460    10032    10071 1
   10461    10033    10034 1
   10462    10033    10072 1
   10463    10033    10073 1
   10464    10034    10035 1
   10465    10034    10074 1
   10466    10034    10075 1
   10467    10035    10036 1
   10468    10035    10076 1
   10469    10035    10077 1
   10470    10036    10037 1
   10471    10036    10043 1
   10472    10036    10078 1
   10473    10037    10038 1
   10474    10037    10079 1
   10475    10037    10080 1
   10476    10038    10039 1
   10477    10038    10081 1
   10478    10038    10082 1
   10479    10039    10040 1
   10480    10039    10083 1
   10481    10039    10084 1
   10482    10040    10041 1
   10483    10040    10085 1
   10484    10040    10086 1
   10485    10041    10042 1
   10486    10041    10087 1
   10487    10041    10088 1
   10488    10042    10089 1
   10489    10042    10090 1
   10490    10042    10091 1
   10491    10043    10044 1
   10492    10043    10092 1
   10493    10043    10093 1
   10494    10044    10045 1
   10495    10045    10046 1
   10496    10045    10094 1
   10497    10045    10095 1
   10498    10046    10047 1
   10499    10046    10053 1
   10500    10046    10096 1
   10501    10047    10048 1
   10502    10047    10097 1
   10503    10047    10098 1
   10504    10048    10049 1
   10505    10048    10099 1
   10506    10048    10100 1
   10507    10049    10050 1
   10508    10049    10101 1
   10509    10049    10102 1
   10510    10050    10051 1
   10511    10050    10103 1
   10512    10050    10104 1
   10513    10051    10052 1
   10514    10051    10105 1
   10515    10051    10106 1
   10516    10052    10107 1
   10517    10052    10108 1
   10518    10052    10109 1
   10519    10053    10054 1
   10520    10053    10110 1
   10521    10053    10111 1
   10522    10054    10055 1
   10523    10054    10112 1
   10524    10054    10113 1
   10525    10055    10056 1
   10526    10055    10114 1
   10527    10055    10115 1
   10528    10056    10057 1
   10529    10056    10116 1
   10530    10056    10117 1
   10531    10057    10058 1
   10532    10057    10118 1
   10533    10057    10119 1
   10534    10058    10059 1
   10535    10058    10120 1
   10536    10058    10121 1
   10537    10059    10060 1
   10538    10059    10122 1
   10539    10059    10123 1
   10540    10060    10124 1
   10541    10060    10125 1
   10542    10060    10126 1
   10543    10127    10128 1
   10544    10127    10134 1
   10545    10127    10166 1
   10546    10128    10129 1
   10547    10128    10132 1
   10548    10129    10130 1
   10549    10129    10133 1
   10550    10130    10131 1
   10551    10131    10132 1
   10552    10131    10142 1
   10553    10132    10138 1
   10554    10133    10134 1
   10555    10133    10137 1
   10556    10134    10135 1
   10557    10135    10136 1
   10558    10135    10139 1
   10559    10136    10137 1
   10560    10140    10141 1
   10561    10140    10148 1
   10562    10141    10142 1
   10563    10141    10149 1
   10564    10142    10143 1
   10565    10143    10144 1
   10566    10143    10147 1
   10567    10144    10145 1
   10568    10145    10146 1
   10569    10146    10147 1
   10570    10147    10148 1
   10571    10148    10258 1
   10572    10150    10151 1
   10573    10150    10183 1
   10574    10150    10184 1
   10575    10150    10185 1
   10576    10151    10152 1
   10577    10151    10186 1
   10578    10151    10187 1
   10579    10152    10153 1
   10580    10152    10188 1
   10581    10152    10189 1
   10582    10153    10154 1
   10583    10153    10190 1
   10584    10153    10191 1
   10585    10154    10155 1
   10586    10154    10192 1
   10587    10154    10193 1
   10588    10155    10156 1
   10589    10155    10194 1
   10590    10155    10195 1
   10591    10156    10157 1
   10592    10156    10196 1
   10593    10156    10197 1
   10594    10157    10158 1
   10595    10157    10198 1
   10596    10157    10199 1
   10597    10158    10159 1
   10598    10158    10165 1
   10599    10158    10200 1
   10600    10159    10160 1
   10601    10159    10201 1
   10602    10159    10202 1
   10603    10160    10161 1
   10604    10160    10203 1
   10605    10160    10204 1
   10606    10161    10162 1
   10607    10161    10205 1
   10608    10161    10206 1
   10609    10162    10163 1
   10610    10162    10207 1
   10611    10162    10208 1
   10612    10163    10164 1
   10613    10163    10209 1
   10614    10163    10210 1
   10615    10164    10211 1
   10616    10164    10212 1
   10617    10164    10213 1
   10618    10165    10166 1
   10619    10165    10214 1
   10620    10165    10215 1
   10621    10166    10167 1
   10622    10167    10168 1
   10623    10167    10216 1
   10624    10167    10217 1
   10625    10168    10169 1
   10626    10168    10175 1
   10627    10168    10218 1
   10628    10169    10170 1
   10629    10169    10219 1
   10630    10169    10220 1
   10631    10170    10171 1
   10632    10170    10221 1
   10633    10170    10222 1
   10634    10171    10172 1
   10635    10171    10223 1
   10636    10171    10224 1
   10637    10172    10173 1
   10638    10172    10225 1
   10639    10172    10226 1
   10640    10173    10174 1
   10641    10173    10227 1
   10642    10173    10228 1
   10643    10174    10229 1
   10644    10174    10230 1
   10645    10174    10231 1
   10646    10175    10176 1
   10647    10175    10232 1
   10648    10175    10233 1
   10649    10176    10177 1
   10650    10176    10234 1
   10651    10176    10235 1
   10652    10177    10178 1
   10653    10177    10236 1
   10654    10177    10237 1
   10655    10178    10179 1
   10656    10178    10238 1
   10657    10178    10239 1
   10658    10179    10180 1
   10659    10179    10240 1
   10660    10179    10241 1
   10661    10180    10181 1
   10662    10180    10242 1
   10663    10180    10243 1
   10664    10181    10182 1
   10665    10181    10244 1
   10666    10181    10245 1
   10667    10182    10246 1
   10668    10182    10247 1
   10669    10182    10248 1
   10670    10249    10250 1
   10671    10249    10256 1
   10672    10249    10288 1
   10673    10250    10251 1
   10674    10250    10254 1
   10675    10251    10252 1
   10676    10251    10255 1
   10677    10252    10253 1
   10678    10253    10254 1
   10679    10253    10264 1
   10680    10254    10260 1
   10681    10255    10256 1
   10682    10255    10259 1
   10683    10256    10257 1
   10684    10257    10258 1
   10685    10257    10261 1
   10686    10258    10259 1
   10687    10262    10263 1
   10688    10262    10270 1
   10689    10263    10264 1
   10690    10263    10271 1
   10691    10264    10265 1
   10692    10265    10266 1
   10693    10265    10269 1
   10694    10266    10267 1
   10695    10267    10268 1
   10696    10268    10269 1
   10697    10269    10270 1
   10698    10270    10380 1
   10699    10272    10273 1
   10700    10272    10305 1
   10701    10272    10306 1
   10702    10272    10307 1
   10703    10273    10274 1
   10704    10273    10308 1
   10705    10273    10309 1
   10706    10274    10275 1
   10707    10274    10310 1
   10708    10274    10311 1
   10709    10275    10276 1
   10710    10275    10312 1
   10711    10275    10313 1
   10712    10276    10277 1
   10713    10276    10314 1
   10714    10276    10315 1
   10715    10277    10278 1
   10716    10277    10316 1
   10717    10277    10317 1
   10718    10278    10279 1
   10719    10278    10318 1
   10720    10278    10319 1
   10721    10279    10280 1
   10722    10279    10320 1
   10723    10279    10321 1
   10724    10280    10281 1
   10725    10280    10287 1
   10726    10280    10322 1
   10727    10281    10282 1
   10728    10281    10323 1
   10729    10281    10324 1
   10730    10282    10283 1
   10731    10282    10325 1
   10732    10282    10326 1
   10733    10283    10284 1
   10734    10283    10327 1
   10735    10283    10328 1
   10736    10284    10285 1
   10737    10284    10329 1
   10738    10284    10330 1
   10739    10285    10286 1
   10740    10285    10331 1
   10741    10285    10332 1
   10742    10286    10333 1
   10743    10286    10334 1
   10744    10286    10335 1
   10745    10287    10288 1
   10746    10287    10336 1
   10747    10287    10337 1
   10748    10288    10289 1
   10749    10289    10290 1
   10750    10289    10338 1
   10751    10289    10339 1
   10752    10290    10291 1
   10753    10290    10297 1
   10754    10290    10340 1
   10755    10291    10292 1
   10756    10291    10341 1
   10757    10291    10342 1
   10758    10292    10293 1
   10759    10292    10343 1
   10760    10292    10344 1
   10761    10293    10294 1
   10762    10293    10345 1
   10763    10293    10346 1
   10764    10294    10295 1
   10765    10294    10347 1
   10766    10294    10348 1
   10767    10295    10296 1
   10768    10295    10349 1
   10769    10295    10350 1
   10770    10296    10351 1
   10771    10296    10352 1
   10772    10296    10353 1
   10773    10297    10298 1
   10774    10297    10354 1
   10775    10297    10355 1
   10776    10298    10299 1
   10777    10298    10356 1
   10778    10298    10357 1
   10779    10299    10300 1
   10780    10299    10358 1
   10781    10299    10359 1
   10782    10300    10301 1
   10783    10300    10360 1
   10784    10300    10361 1
   10785    10301    10302 1
   10786    10301    10362 1
   10787    10301    10363 1
   10788    10302    10303 1
   10789    10302    10364 1
   10790    10302    10365 1
   10791    10303    10304 1
   10792    10303    10366 1
   10793    10303    10367 1
   10794    10304    10368 1
   10795    10304    10369 1
   10796    10304    10370 1
   10797    10371    10372 1
   10798    10371    10378 1
   10799    10371    10410 1
   10800    10372    10373 1
   10801    10372    10376 1
   10802    10373    10374 1
   10803    10373    10377 1
   10804    10374    10375 1
   10805    10375    10376 1
   10806    10375    10386 1
   10807    10376    10382 1
   10808    10377    10378 1
   10809    10377    10381 1
   10810    10378    10379 1
   10811    10379    10380 1
   10812    10379    10383 1
   10813    10380    10381 1
   10814    10384    10385 1
   10815    10384    10392 1
   10816    10385    10386 1
   10817    10385    10393 1
   10818    10386    10387 1
   10819    10387    10388 1
   10820    10387    10391 1
   10821    10388    10389 1
   10822    10389    10390 1
   10823    10390    10391 1
   10824    10391    10392 1
   10825    10392    10502 1
   10826    10394    10395 1
   10827    10394    10427 1
   10828    10394    10428 1
   10829    10394    10429 1
   10830    10395    10396 1
   10831    10395    10430 1
   10832    10395    10431 1
   10833    10396    10397 1
   10834    10396    10432 1
   10835    10396    10433 1
   10836    10397    10398 1
   10837    10397    10434 1
   10838    10397    10435 1
   10839    10398    10399 1
   10840    10398    10436 1
   10841    10398    10437 1
   10842    10399    10400 1
   10843    10399    10438 1
   10844    10399    10439 1
   10845    10400    10401 1
   10846    10400    10440 1
   10847    10400    10441 1
   10848    10401    10402 1
   10849    10401    10442 1
   10850    10401    10443 1
   10851    10402    10403 1
   10852    10402    10409 1
   10853    10402    10444 1
   10854    10403    10404 1
   10855    10403    10445 1
   10856    10403    10446 1
   10857    10404    10405 1
   10858    10404    10447 1
   10859    10404    10448 1
   10860    10405    10406 1
   10861    10405    10449 1
   10862    10405    10450 1
   10863    10406    10407 1
   10864    10406    10451 1
   10865    10406    10452 1
   10866    10407    10408 1
   10867    10407    10453 1
   10868    10407    10454 1
   10869    10408    10455 1
   10870    10408    10456 1
   10871    10408    10457 1
   10872    10409    10410 1
   10873    10409    10458 1
   10874    10409    10459 1
   10875    10410    10411 1
   10876    10411    10412 1
   10877    10411    10460 1
   10878    10411    10461 1
   10879    10412    10413 1
   10880    10412    10419 1
   10881    10412    10462 1
   10882    10413    10414 1
   10883    10413    10463 1
   10884    10413    10464 1
   10885    10414    10415 1
   10886    10414    10465 1
   10887    10414    10466 1
   10888    10415    10416 1
   10889    10415    10467 1
   10890    10415    10468 1
   10891    10416    10417 1
   10892    10416    10469 1
   10893    10416    10470 1
   10894    10417    10418 1
   10895    10417    10471 1
   10896    10417    10472 1
   10897    10418    10473 1
   10898    10418    10474 1
   10899    10418    10475 1
   10900    10419    10420 1
   10901    10419    10476 1
   10902    10419    10477 1
   10903    10420    10421 1
   10904    10420    10478 1
   10905    10420    10479 1
   10906    10421    10422 1
   10907    10421    10480 1
   10908    10421    10481 1
   10909    10422    10423 1
   10910    10422    10482 1
   10911    10422    10483 1
   10912    10423    10424 1
   10913    10423    10484 1
   10914    10423    10485 1
   10915    10424    10425 1
   10916    10424    10486 1
   10917    10424    10487 1
   10918    10425    10426 1
   10919    10425    10488 1
   10920    10425    10489 1
   10921    10426    10490 1
   10922    10426    10491 1
   10923    10426    10492 1
   10924    10493    10494 1
   10925    10493    10500 1
   10926    10493    10532 1
   10927    10494    10495 1
   10928    10494    10498 1
   10929    10495    10496 1
   10930    10495    10499 1
   10931    10496    10497 1
   10932    10497    10498 1
   10933    10497    10508 1
   10934    10498    10504 1
   10935    10499    10500 1
   10936    10499    10503 1
   10937    10500    10501 1
   10938    10501    10502 1
   10939    10501    10505 1
   10940    10502    10503 1
   10941    10506    10507 1
   10942    10506    10514 1
   10943    10507    10508 1
   10944    10507    10515 1
   10945    10508    10509 1
   10946    10509    10510 1
   10947    10509    10513 1
   10948    10510    10511 1
   10949    10511    10512 1
   10950    10512    10513 1
   10951    10513    10514 1
   10952    10514    10624 1
   10953    10516    10517 1
   10954    10516    10549 1
   10955    10516    10550 1
   10956    10516    10551 1
   10957    10517    10518 1
   10958    10517    10552 1
   10959    10517    10553 1
   10960    10518    10519 1
   10961    10518    10554 1
   10962    10518    10555 1
   10963    10519    10520 1
   10964    10519    10556 1
   10965    10519    10557 1
   10966    10520    10521 1
   10967    10520    10558 1
   10968    10520    10559 1
   10969    10521    10522 1
   10970    10521    10560 1
   10971    10521    10561 1
   10972    10522    10523 1
   10973    10522    10562 1
   10974    10522    10563 1
   10975    10523    10524 1
   10976    10523    10564 1
   10977    10523    10565 1
   10978    10524    10525 1
   10979    10524    10531 1
   10980    10524    10566 1
   10981    10525    10526 1
   10982    10525    10567 1
   10983    10525    10568 1
   10984    10526    10527 1
   10985    10526    10569 1
   10986    10526    10570 1
   10987    10527    10528 1
   10988    10527    10571 1
   10989    10527    10572 1
   10990    10528    10529 1
   10991    10528    10573 1
   10992    10528    10574 1
   10993    10529    10530 1
   10994    10529    10575 1
   10995    10529    10576 1
   10996    10530    10577 1
   10997    10530    10578 1
   10998    10530    10579 1
   10999    10531    10532 1
   11000    10531    10580 1
   11001    10531    10581 1
   11002    10532    10533 1
   11003    10533    10534 1
   11004    10533    10582 1
   11005    10533    10583 1
   11006    10534    10535 1
   11007    10534    10541 1
   11008    10534    10584 1
   11009    10535    10536 1
   11010    10535    10585 1
   11011    10535    10586 1
   11012    10536    10537 1
   11013    10536    10587 1
   11014    10536    10588 1
   11015    10537    10538 1
   11016    10537    10589 1
   11017    10537    10590 1
   11018    10538    10539 1
   11019    10538    10591 1
   11020    10538    10592 1
   11021    10539    10540 1
   11022    10539    10593 1
   11023    10539    10594 1
   11024    10540    10595 1
   11025    10540    10596 1
   11026    10540    10597 1
   11027    10541    10542 1
   11028    10541    10598 1
   11029    10541    10599 1
   11030    10542    10543 1
   11031    10542    10600 1
   11032    10542    10601 1
   11033    10543    10544 1
   11034    10543    10602 1
   11035    10543    10603 1
   11036    10544    10545 1
   11037    10544    10604 1
   11038    10544    10605 1
   11039    10545    10546 1
   11040    10545    10606 1
   11041    10545    10607 1
   11042    10546    10547 1
   11043    10546    10608 1
   11044    10546    10609 1
   11045    10547    10548 1
   11046    10547    10610 1
   11047    10547    10611 1
   11048    10548    10612 1
   11049    10548    10613 1
   11050    10548    10614 1
   11051    10615    10616 1
   11052    10615    10622 1
   11053    10615    10654 1
   11054    10616    10617 1
   11055    10616    10620 1
   11056    10617    10618 1
   11057    10617    10621 1
   11058    10618    10619 1
   11059    10619    10620 1
   11060    10619    10630 1
   11061    10620    10626 1
   11062    10621    10622 1
   11063    10621    10625 1
   11064    10622    10623 1
   11065    10623    10624 1
   11066    10623    10627 1
   11067    10624    10625 1
   11068    10628    10629 1
   11069    10628    10636 1
   11070    10629    10630 1
   11071    10629    10637 1
   11072    10630    10631 1
   11073    10631    10632 1
   11074    10631    10635 1
   11075    10632    10633 1
   11076    10633    10634 1
   11077    10634    10635 1
   11078    10635    10636 1
   11079    10636    10746 1
   11080    10638    10639 1
   11081    10638    10671 1
   11082    10638    10672 1
   11083    10638    10673 1
   11084    10639    10640 1
   11085    10639    10674 1
   11086    10639    10675 1
   11087    10640    10641 1
   11088    10640    10676 1
   11089    10640    10677 1
   11090    10641    10642 1
   11091    10641    10678 1
   11092    10641    10679 1
   11093    10642    10643 1
   11094    10642    10680 1
   11095    10642    10681 1
   11096    10643    10644 1
   11097    10643    10682 1
   11098    10643    10683 1
   11099    10644    10645 1
   11100    10644    10684 1
   11101    10644    10685 1
   11102    10645    10646 1
   11103    10645    10686 1
   11104    10645    10687 1
   11105    10646    10647 1
   11106    10646    10653 1
   11107    10646    10688 1
   11108    10647    10648 1
   11109    10647    10689 1
   11110    10647    10690 1
   11111    10648    10649 1
   11112    10648    10691 1
   11113    10648    10692 1
   11114    10649    10650 1
   11115    10649    10693 1
   11116    10649    10694 1
   11117    10650    10651 1
   11118    10650    10695 1
   11119    10650    10696 1
   11120    10651    10652 1
   11121    10651    10697 1
   11122    10651    10698 1
   11123    10652    10699 1
   11124    10652    10700 1
   11125    10652    10701 1
   11126    10653    10654 1
   11127    10653    10702 1
   11128    10653    10703 1
   11129    10654    10655 1
   11130    10655    10656 1
   11131    10655    10704 1
   11132    10655    10705 1
   11133    10656    10657 1
   11134    10656    10663 1
   11135    10656    10706 1
   11136    10657    10658 1
   11137    10657    10707 1
   11138    10657    10708 1
   11139    10658    10659 1
   11140    10658    10709 1
   11141    10658    10710 1
   11142    10659    10660 1
   11143    10659    10711 1
   11144    10659    10712 1
   11145    10660    10661 1
   11146    10660    10713 1
   11147    10660    10714 1
   11148    10661    10662 1
   11149    10661    10715 1
   11150    10661    10716 1
   11151    10662    10717 1
   11152    10662    10718 1
   11153    10662    10719 1
   11154    10663    10664 1
   11155    10663    10720 1
   11156    10663    10721 1
   11157    10664    10665 1
   11158    10664    10722 1
   11159    10664    10723 1
   11160    10665    10666 1
   11161    10665    10724 1
   11162    10665    10725 1
   11163    10666    10667 1
   11164    10666    10726 1
   11165    10666    10727 1
   11166    10667    10668 1
   11167    10667    10728 1
   11168    10667    10729 1
   11169    10668    10669 1
   11170    10668    10730 1
   11171    10668    10731 1
   11172    10669    10670 1
   11173    10669    10732 1
   11174    10669    10733 1
   11175    10670    10734 1
   11176    10670    10735 1
   11177    10670    10736 1
   11178    10737    10738 1
   11179    10737    10744 1
   11180    10737    10776 1
   11181    10738    10739 1
   11182    10738    10742 1
   11183    10739    10740 1
   11184    10739    10743 1
   11185    10740    10741 1
   11186    10741    10742 1
   11187    10741    10752 1
   11188    10742    10748 1
   11189    10743    10744 1
   11190    10743    10747 1
   11191    10744    10745 1
   11192    10745    10746 1
   11193    10745    10749 1
   11194    10746    10747 1
   11195    10750    10751 1
   11196    10750    10758 1
   11197    10751    10752 1
   11198    10751    10759 1
   11199    10752    10753 1
   11200    10753    10754 1
   11201    10753    10757 1
   11202    10754    10755 1
   11203    10755    10756 1
   11204    10756    10757 1
   11205    10757    10758 1
   11206    10758    10868 1
   11207    10760    10761 1
   11208    10760    10793 1
   11209    10760    10794 1
   11210    10760    10795 1
   11211    10761    10762 1
   11212    10761    10796 1
   11213    10761    10797 1
   11214    10762    10763 1
   11215    10762    10798 1
   11216    10762    10799 1
   11217    10763    10764 1
   11218    10763    10800 1
   11219    10763    10801 1
   11220    10764    10765 1
   11221    10764    10802 1
   11222    10764    10803 1
   11223    10765    10766 1
   11224    10765    10804 1
   11225    10765    10805 1
   11226    10766    10767 1
   11227    10766    10806 1
   11228    10766    10807 1
   11229    10767    10768 1
   11230    10767    10808 1
   11231    10767    10809 1
   11232    10768    10769 1
   11233    10768    10775 1
   11234    10768    10810 1
   11235    10769    10770 1
   11236    10769    10811 1
   11237    10769    10812 1
   11238    10770    10771 1
   11239    10770    10813 1
   11240    10770    10814 1
   11241    10771    10772 1
   11242    10771    10815 1
   11243    10771    10816 1
   11244    10772    10773 1
   11245    10772    10817 1
   11246    10772    10818 1
   11247    10773    10774 1
   11248    10773    10819 1
   11249    10773    10820 1
   11250    10774    10821 1
   11251    10774    10822 1
   11252    10774    10823 1
   11253    10775    10776 1
   11254    10775    10824 1
   11255    10775    10825 1
   11256    10776    10777 1
   11257    10777    10778 1
   11258    10777    10826 1
   11259    10777    10827 1
   11260    10778    10779 1
   11261    10778    10785 1
   11262    10778    10828 1
   11263    10779    10780 1
   11264    10779    10829 1
   11265    10779    10830 1
   11266    10780    10781 1
   11267    10780    10831 1
   11268    10780    10832 1
   11269    10781    10782 1
   11270    10781    10833 1
   11271    10781    10834 1
   11272    10782    10783 1
   11273    10782    10835 1
   11274    10782    10836 1
   11275    10783    10784 1
   11276    10783    10837 1
   11277    10783    10838 1
   11278    10784    10839 1
   11279    10784    10840 1
   11280    10784    10841 1
   11281    10785    10786 1
   11282    10785    10842 1
   11283    10785    10843 1
   11284    10786    10787 1
   11285    10786    10844 1
   11286    10786    10845 1
   11287    10787    10788 1
   11288    10787    10846 1
   11289    10787    10847 1
   11290    10788    10789 1
   11291    10788    10848 1
   11292    10788    10849 1
   11293    10789    10790 1
   11294    10789    10850 1
   11295    10789    10851 1
   11296    10790    10791 1
   11297    10790    10852 1
   11298    10790    10853 1
   11299    10791    10792 1
   11300    10791    10854 1
   11301    10791    10855 1
   11302    10792    10856 1
   11303    10792    10857 1
   11304    10792    10858 1
   11305    10859    10860 1
   11306    10859    10866 1
   11307    10859    10898 1
   11308    10860    10861 1
   11309    10860    10864 1
   11310    10861    10862 1
   11311    10861    10865 1
   11312    10862    10863 1
   11313    10863    10864 1
   11314    10863    10874 1
   11315    10864    10870 1
   11316    10865    10866 1
   11317    10865    10869 1
   11318    10866    10867 1
   11319    10867    10868 1
   11320    10867    10871 1
   11321    10868    10869 1
   11322    10872    10873 1
   11323    10872    10880 1
   11324    10873    10874 1
   11325    10873    10881 1
   11326    10874    10875 1
   11327    10875    10876 1
   11328    10875    10879 1
   11329    10876    10877 1
   11330    10877    10878 1
   11331    10878    10879 1
   11332    10879    10880 1
   11333    10880    10990 1
   11334    10882    10883 1
   11335    10882    10915 1
   11336    10882    10916 1
   11337    10882    10917 1
   11338    10883    10884 1
   11339    10883    10918 1
   11340    10883    10919 1
   11341    10884    10885 1
   11342    10884    10920 1
   11343    10884    10921 1
   11344    10885    10886 1
   11345    10885    10922 1
   11346    10885    10923 1
   11347    10886    10887 1
   11348    10886    10924 1
   11349    10886    10925 1
   11350    10887    10888 1
   11351    10887    10926 1
   11352    10887    10927 1
   11353    10888    10889 1
   11354    10888    10928 1
   11355    10888    10929 1
   11356    10889    10890 1
   11357    10889    10930 1
   11358    10889    10931 1
   11359    10890    10891 1
   11360    10890    10897 1
   11361    10890    10932 1
   11362    10891    10892 1
   11363    10891    10933 1
   11364    10891    10934 1
   11365    10892    10893 1
   11366    10892    10935 1
   11367    10892    10936 1
   11368    10893    10894 1
   11369    10893    10937 1
   11370    10893    10938 1
   11371    10894    10895 1
   11372    10894    10939 1
   11373    10894    10940 1
   11374    10895    10896 1
   11375    10895    10941 1
   11376    10895    10942 1
   11377    10896    10943 1
   11378    10896    10944 1
   11379    10896    10945 1
   11380    10897    10898 1
   11381    10897    10946 1
   11382    10897    10947 1
   11383    10898    10899 1
   11384    10899    10900 1
   11385    10899    10948 1
   11386    10899    10949 1
   11387    10900    10901 1
   11388    10900    10907 1
   11389    10900    10950 1
   11390    10901    10902 1
   11391    10901    10951 1
   11392    10901    10952 1
   11393    10902    10903 1
   11394    10902    10953 1
   11395    10902    10954 1
   11396    10903    10904 1
   11397    10903    10955 1
   11398    10903    10956 1
   11399    10904    10905 1
   11400    10904    10957 1
   11401    10904    10958 1
   11402    10905    10906 1
   11403    10905    10959 1
   11404    10905    10960 1
   11405    10906    10961 1
   11406    10906    10962 1
   11407    10906    10963 1
   11408    10907    10908 1
   11409    10907    10964 1
   11410    10907    10965 1
   11411    10908    10909 1
   11412    10908    10966 1
   11413    10908    10967 1
   11414    10909    10910 1
   11415    10909    10968 1
   11416    10909    10969 1
   11417    10910    10911 1
   11418    10910    10970 1
   11419    10910    10971 1
   11420    10911    10912 1
   11421    10911    10972 1
   11422    10911    10973 1
   11423    10912    10913 1
   11424    10912    10974 1
   11425    10912    10975 1
   11426    10913    10914 1
   11427    10913    10976 1
   11428    10913    10977 1
   11429    10914    10978 1
   11430    10914    10979 1
   11431    10914    10980 1
   11432    10981    10982 1
   11433    10981    10988 1
   11434    10981    11020 1
   11435    10982    10983 1
   11436    10982    10986 1
   11437    10983    10984 1
   11438    10983    10987 1
   11439    10984    10985 1
   11440    10985    10986 1
   11441    10985    10996 1
   11442    10986    10992 1
   11443    10987    10988 1
   11444    10987    10991 1
   11445    10988    10989 1
   11446    10989    10990 1
   11447    10989    10993 1
   11448    10990    10991 1
   11449    10994    10995 1
   11450    10994    11002 1
   11451    10995    10996 1
   11452    10995    11003 1
   11453    10996    10997 1
   11454    10997    10998 1
   11455    10997    11001 1
   11456    10998    10999 1
   11457    10999    11000 1
   11458    11000    11001 1
   11459    11001    11002 1
   11460    11002    11112 1
   11461    11004    11005 1
   11462    11004    11037 1
   11463    11004    11038 1
   11464    11004    11039 1
   11465    11005    11006 1
   11466    11005    11040 1
   11467    11005    11041 1
   11468    11006    11007 1
   11469    11006    11042 1
   11470    11006    11043 1
   11471    11007    11008 1
   11472    11007    11044 1
   11473    11007    11045 1
   11474    11008    11009 1
   11475    11008    11046 1
   11476    11008    11047 1
   11477    11009    11010 1
   11478    11009    11048 1
   11479    11009    11049 1
   11480    11010    11011 1
   11481    11010    11050 1
   11482    11010    11051 1
   11483    11011    11012 1
   11484    11011    11052 1
   11485    11011    11053 1
   11486    11012    11013 1
   11487    11012    11019 1
   11488    11012    11054 1
   11489    11013    11014 1
   11490    11013    11055 1
   11491    11013    11056 1
   11492    11014    11015 1
   11493    11014    11057 1
   11494    11014    11058 1
   11495    11015    11016 1
   11496    11015    11059 1
   11497    11015    11060 1
   11498    11016    11017 1
   11499    11016    11061 1
   11500    11016    11062 1
   11501    11017    11018 1
   11502    11017    11063 1
   11503    11017    11064 1
   11504    11018    11065 1
   11505    11018    11066 1
   11506    11018    11067 1
   11507    11019    11020 1
   11508    11019    11068 1
   11509    11019    11069 1
   11510    11020    11021 1
   11511    11021    11022 1
   11512    11021    11070 1
   11513    11021    11071 1
   11514    11022    11023 1
   11515    11022    11029 1
   11516    11022    11072 1
   11517    11023    11024 1
   11518    11023    11073 1
   11519    11023    11074 1
   11520    11024    11025 1
   11521    11024    11075 1
   11522    11024    11076 1
   11523    11025    11026 1
   11524    11025    11077 1
   11525    11025    11078 1
   11526    11026    11027 1
   11527    11026    11079 1
   11528    11026    11080 1
   11529    11027    11028 1
   11530    11027    11081 1
   11531    11027    11082 1
   11532    11028    11083 1
   11533    11028    11084 1
   11534    11028    11085 1
   11535    11029    11030 1
   11536    11029    11086 1
   11537    11029    11087 1
   11538    11030    11031 1
   11539    11030    11088 1
   11540    11030    11089 1
   11541    11031    11032 1
   11542    11031    11090 1
   11543    11031    11091 1
   11544    11032    11033 1
   11545    11032    11092 1
   11546    11032    11093 1
   11547    11033    11034 1
   11548    11033    11094 1
   11549    11033    11095 1
   11550    11034    11035 1
   11551    11034    11096 1
   11552    11034    11097 1
   11553    11035    11036 1
   11554    11035    11098 1
   11555    11035    11099 1
   11556    11036    11100 1
   11557    11036    11101 1
   11558    11036    11102 1
   11559    11103    11104 1
   11560    11103    11110 1
   11561    11103    11142 1
   11562    11104    11105 1
   11563    11104    11108 1
   11564    11105    11106 1
   11565    11105    11109 1
   11566    11106    11107 1
   11567    11107    11108 1
   11568    11107    11118 1
   11569    11108    11114 1
   11570    11109    11110 1
   11571    11109    11113 1
   11572    11110    11111 1
   11573    11111    11112 1
   11574    11111    11115 1
   11575    11112    11113 1
   11576    11116    11117 1
   11577    11116    11124 1
   11578    11117    11118 1
   11579    11117    11125 1
   11580    11118    11119 1
   11581    11119    11120 1
   11582    11119    11123 1
   11583    11120    11121 1
   11584    11121    11122 1
   11585    11122    11123 1
   11586    11123    11124 1
   11587    11124    11234 1
   11588    11126    11127 1
   11589    11126    11159 1
   11590    11126    11160 1
   11591    11126    11161 1
   11592    11127    11128 1
   11593    11127    11162 1
   11594    11127    11163 1
   11595    11128    11129 1
   11596    11128    11164 1
   11597    11128    11165 1
   11598    11129    11130 1
   11599    11129    11166 1
   11600    11129    11167 1
   11601    11130    11131 1
   11602    11130    11168 1
   11603    11130    11169 1
   11604    11131    11132 1
   11605    11131    11170 1
   11606    11131    11171 1
   11607    11132    11133 1
   11608    11132    11172 1
   11609    11132    11173 1
   11610    11133    11134 1
   11611    11133    11174 1
   11612    11133    11175 1
   11613    11134    11135 1
   11614    11134    11141 1
   11615    11134    11176 1
   11616    11135    11136 1
   11617    11135    11177 1
   11618    11135    11178 1
   11619    11136    11137 1
   11620    11136    11179 1
   11621    11136    11180 1
   11622    11137    11138 1
   11623    11137    11181 1
   11624    11137    11182 1
   11625    11138    11139 1
   11626    11138    11183 1
   11627    11138    11184 1
   11628    11139    11140 1
   11629    11139    11185 1
   11630    11139    11186 1
   11631    11140    11187 1
   11632    11140    11188 1
   11633    11140    11189 1
   11634    11141    11142 1
   11635    11141    11190 1
   11636    11141    11191 1
   11637    11142    11143 1
   11638    11143    11144 1
   11639    11143    11192 1
   11640    11143    11193 1
   11641    11144    11145 1
   11642    11144    11151 1
   11643    11144    11194 1
   11644    11145    11146 1
   11645    11145    11195 1
   11646    11145    11196 1
   11647    11146    11147 1
   11648    11146    11197 1
   11649    11146    11198 1
   11650    11147    11148 1
   11651    11147    11199 1
   11652    11147    11200 1
   11653    11148    11149 1
   11654    11148    11201 1
   11655    11148    11202 1
   11656    11149    11150 1
   11657    11149    11203 1
   11658    11149    11204 1
   11659    11150    11205 1
   11660    11150    11206 1
   11661    11150    11207 1
   11662    11151    11152 1
   11663    11151    11208 1
   11664    11151    11209 1
   11665    11152    11153 1
   11666    11152    11210 1
   11667    11152    11211 1
   11668    11153    11154 1
   11669    11153    11212 1
   11670    11153    11213 1
   11671    11154    11155 1
   11672    11154    11214 1
   11673    11154    11215 1
   11674    11155    11156 1
   11675    11155    11216 1
   11676    11155    11217 1
   11677    11156    11157 1
   11678    11156    11218 1
   11679    11156    11219 1
   11680    11157    11158 1
   11681    11157    11220 1
   11682    11157    11221 1
   11683    11158    11222 1
   11684    11158    11223 1
   11685    11158    11224 1
   11686    11225    11226 1
   11687    11225    11232 1
   11688    11225    11264 1
   11689    11226    11227 1
   11690    11226    11230 1
   11691    11227    11228 1
   11692    11227    11231 1
   11693    11228    11229 1
   11694    11229    11230 1
   11695    11229    11240 1
   11696    11230    11236 1
   11697    11231    11232 1
   11698    11231    11235 1
   11699    11232    11233 1
   11700    11233    11234 1
   11701    11233    11237 1
   11702    11234    11235 1
   11703    11238    11239 1
   11704    11238    11246 1
   11705    11239    11240 1
   11706    11239    11247 1
   11707    11240    11241 1
   11708    11241    11242 1
   11709    11241    11245 1
   11710    11242    11243 1
   11711    11243    11244 1
   11712    11244    11245 1
   11713    11245    11246 1
   11714    11246    11356 1
   11715    11248    11249 1
   11716    11248    11281 1
   11717    11248    11282 1
   11718    11248    11283 1
   11719    11249    11250 1
   11720    11249    11284 1
   11721    11249    11285 1
   11722    11250    11251 1
   11723    11250    11286 1
   11724    11250    11287 1
   11725    11251    11252 1
   11726    11251    11288 1
   11727    11251    11289 1
   11728    11252    11253 1
   11729    11252    11290 1
   11730    11252    11291 1
   11731    11253    11254 1
   11732    11253    11292 1
   11733    11253    11293 1
   11734    11254    11255 1
   11735    11254    11294 1
   11736    11254    11295 1
   11737    11255    11256 1
   11738    11255    11296 1
   11739    11255    11297 1
   11740    11256    11257 1
   11741    11256    11263 1
   11742    11256    11298 1
   11743    11257    11258 1
   11744    11257    11299 1
   11745    11257    11300 1
   11746    11258    11259 1
   11747    11258    11301 1
   11748    11258    11302 1
   11749    11259    11260 1
   11750    11259    11303 1
   11751    11259    11304 1
   11752    11260    11261 1
   11753    11260    11305 1
   11754    11260    11306 1
   11755    11261    11262 1
   11756    11261    11307 1
   11757    11261    11308 1
   11758    11262    11309 1
   11759    11262    11310 1
   11760    11262    11311 1
   11761    11263    11264 1
   11762    11263    11312 1
   11763    11263    11313 1
   11764    11264    11265 1
   11765    11265    11266 1
   11766    11265    11314 1
   11767    11265    11315 1
   11768    11266    11267 1
   11769    11266    11273 1
   11770    11266    11316 1
   11771    11267    11268 1
   11772    11267    11317 1
   11773    11267    11318 1
   11774    11268    11269 1
   11775    11268    11319 1
   11776    11268    11320 1
   11777    11269    11270 1
   11778    11269    11321 1
   11779    11269    11322 1
   11780    11270    11271 1
   11781    11270    11323 1
   11782    11270    11324 1
   11783    11271    11272 1
   11784    11271    11325 1
   11785    11271    11326 1
   11786    11272    11327 1
   11787    11272    11328 1
   11788    11272    11329 1
   11789    11273    11274 1
   11790    11273    11330 1
   11791    11273    11331 1
   11792    11274    11275 1
   11793    11274    11332 1
   11794    11274    11333 1
   11795    11275    11276 1
   11796    11275    11334 1
   11797    11275    11335 1
   11798    11276    11277 1
   11799    11276    11336 1
   11800    11276    11337 1
   11801    11277    11278 1
   11802    11277    11338 1
   11803    11277    11339 1
   11804    11278    11279 1
   11805    11278    11340 1
   11806    11278    11341 1
   11807    11279    11280 1
   11808    11279    11342 1
   11809    11279    11343 1
   11810    11280    11344 1
   11811    11280    11345 1
   11812    11280    11346 1
   11813    11347    11348 1
   11814    11347    11354 1
   11815    11347    11386 1
   11816    11348    11349 1
   11817    11348    11352 1
   11818    11349    11350 1
   11819    11349    11353 1
   11820    11350    11351 1
   11821    11351    11352 1
   11822    11351    11362 1
   11823    11352    11358 1
   11824    11353    11354 1
   11825    11353    11357 1
   11826    11354    11355 1
   11827    11355    11356 1
   11828    11355    11359 1
   11829    11356    11357 1
   11830    11360    11361 1
   11831    11360    11368 1
   11832    11361    11362 1
   11833    11361    11369 1
   11834    11362    11363 1
   11835    11363    11364 1
   11836    11363    11367 1
   11837    11364    11365 1
   11838    11365    11366 1
   11839    11366    11367 1
   11840    11367    11368 1
   11841    11368    11478 1
   11842    11370    11371 1
   11843    11370    11403 1
   11844    11370    11404 1
   11845    11370    11405 1
   11846    11371    11372 1
   11847    11371    11406 1
   11848    11371    11407 1
   11849    11372    11373 1
   11850    11372    11408 1
   11851    11372    11409 1
   11852    11373    11374 1
   11853    11373    11410 1
   11854    11373    11411 1
   11855    11374    11375 1
   11856    11374    11412 1
   11857    11374    11413 1
   11858    11375    11376 1
   11859    11375    11414 1
   11860    11375    11415 1
   11861    11376    11377 1
   11862    11376    11416 1
   11863    11376    11417 1
   11864    11377    11378 1
   11865    11377    11418 1
   11866    11377    11419 1
   11867    11378    11379 1
   11868    11378    11385 1
   11869    11378    11420 1
   11870    11379    11380 1
   11871    11379    11421 1
   11872    11379    11422 1
   11873    11380    11381 1
   11874    11380    11423 1
   11875    11380    11424 1
   11876    11381    11382 1
   11877    11381    11425 1
   11878    11381    11426 1
   11879    11382    11383 1
   11880    11382    11427 1
   11881    11382    11428 1
   11882    11383    11384 1
   11883    11383    11429 1
   11884    11383    11430 1
   11885    11384    11431 1
   11886    11384    11432 1
   11887    11384    11433 1
   11888    11385    11386 1
   11889    11385    11434 1
   11890    11385    11435 1
   11891    11386    11387 1
   11892    11387    11388 1
   11893    11387    11436 1
   11894    11387    11437 1
   11895    11388    11389 1
   11896    11388    11395 1
   11897    11388    11438 1
   11898    11389    11390 1
   11899    11389    11439 1
   11900    11389    11440 1
   11901    11390    11391 1
   11902    11390    11441 1
   11903    11390    11442 1
   11904    11391    11392 1
   11905    11391    11443 1
   11906    11391    11444 1
   11907    11392    11393 1
   11908    11392    11445 1
   11909    11392    11446 1
   11910    11393    11394 1
   11911    11393    11447 1
   11912    11393    11448 1
   11913    11394    11449 1
   11914    11394    11450 1
   11915    11394    11451 1
   11916    11395    11396 1
   11917    11395    11452 1
   11918    11395    11453 1
   11919    11396    11397 1
   11920    11396    11454 1
   11921    11396    11455 1
   11922    11397    11398 1
   11923    11397    11456 1
   11924    11397    11457 1
   11925    11398    11399 1
   11926    11398    11458 1
   11927    11398    11459 1
   11928    11399    11400 1
   11929    11399    11460 1
   11930    11399    11461 1
   11931    11400    11401 1
   11932    11400    11462 1
   11933    11400    11463 1
   11934    11401    11402 1
   11935    11401    11464 1
   11936    11401    11465 1
   11937    11402    11466 1
   11938    11402    11467 1
   11939    11402    11468 1
   11940    11469    11470 1
   11941    11469    11476 1
   11942    11469    11508 1
   11943    11470    11471 1
   11944    11470    11474 1
   11945    11471    11472 1
   11946    11471    11475 1
   11947    11472    11473 1
   11948    11473    11474 1
   11949    11473    11484 1
   11950    11474    11480 1
   11951    11475    11476 1
   11952    11475    11479 1
   11953    11476    11477 1
   11954    11477    11478 1
   11955    11477    11481 1
   11956    11478    11479 1
   11957    11482    11483 1
   11958    11482    11490 1
   11959    11483    11484 1
   11960    11483    11491 1
   11961    11484    11485 1
   11962    11485    11486 1
   11963    11485    11489 1
   11964    11486    11487 1
   11965    11487    11488 1
   11966    11488    11489 1
   11967    11489    11490 1
   11968    11490    11600 1
   11969    11492    11493 1
   11970    11492    11525 1
   11971    11492    11526 1
   11972    11492    11527 1
   11973    11493    11494 1
   11974    11493    11528 1
   11975    11493    11529 1
   11976    11494    11495 1
   11977    11494    11530 1
   11978    11494    11531 1
   11979    11495    11496 1
   11980    11495    11532 1
   11981    11495    11533 1
   11982    11496    11497 1
   11983    11496    11534 1
   11984    11496    11535 1
   11985    11497    11498 1
   11986    11497    11536 1
   11987    11497    11537 1
   11988    11498    11499 1
   11989    11498    11538 1
   11990    11498    11539 1
   11991    11499    11500 1
   11992    11499    11540 1
   11993    11499    11541 1
   11994    11500    11501 1
   11995    11500    11507 1
   11996    11500    11542 1
   11997    11501    11502 1
   11998    11501    11543 1
   11999    11501    11544 1
   12000    11502    11503 1
   12001    11502    11545 1
   12002    11502    11546 1
   12003    11503    11504 1
   12004    11503    11547 1
   12005    11503    11548 1
   12006    11504    11505 1
   12007    11504    11549 1
   12008    11504    11550 1
   12009    11505    11506 1
   12010    11505    11551 1
   12011    11505    11552 1
   12012    11506    11553 1
   12013    11506    11554 1
   12014    11506    11555 1
   12015    11507    11508 1
   12016    11507    11556 1
   12017    11507    11557 1
   12018    11508    11509 1
   12019    11509    11510 1
   12020    11509    11558 1
   12021    11509    11559 1
   12022    11510    11511 1
   12023    11510    11517 1
   12024    11510    11560 1
   12025    11511    11512 1
   12026    11511    11561 1
   12027    11511    11562 1
   12028    11512    11513 1
   12029    11512    11563 1
   12030    11512    11564 1
   12031    11513    11514 1
   12032    11513    11565 1
   12033    11513    11566 1
   12034    11514    11515 1
   12035    11514    11567 1
   12036    11514    11568 1
   12037    11515    11516 1
   12038    11515    11569 1
   12039    11515    11570 1
   12040    11516    11571 1
   12041    11516    11572 1
   12042    11516    11573 1
   12043    11517    11518 1
   12044    11517    11574 1
   12045    11517    11575 1
   12046    11518    11519 1
   12047    11518    11576 1
   12048    11518    11577 1
   12049    11519    11520 1
   12050    11519    11578 1
   12051    11519    11579 1
   12052    11520    11521 1
   12053    11520    11580 1
   12054    11520    11581 1
   12055    11521    11522 1
   12056    11521    11582 1
   12057    11521    11583 1
   12058    11522    11523 1
   12059    11522    11584 1
   12060    11522    11585 1
   12061    11523    11524 1
   12062    11523    11586 1
   12063    11523    11587 1
   12064    11524    11588 1
   12065    11524    11589 1
   12066    11524    11590 1
   12067    11591    11592 1
   12068    11591    11598 1
   12069    11591    11630 1
   12070    11592    11593 1
   12071    11592    11596 1
   12072    11593    11594 1
   12073    11593    11597 1
   12074    11594    11595 1
   12075    11595    11596 1
   12076    11595    11606 1
   12077    11596    11602 1
   12078    11597    11598 1
   12079    11597    11601 1
   12080    11598    11599 1
   12081    11599    11600 1
   12082    11599    11603 1
   12083    11600    11601 1
   12084    11604    11605 1
   12085    11604    11612 1
   12086    11605    11606 1
   12087    11605    11613 1
   12088    11606    11607 1
   12089    11607    11608 1
   12090    11607    11611 1
   12091    11608    11609 1
   12092    11609    11610 1
   12093    11610    11611 1
   12094    11611    11612 1
   12095    11612    11722 1
   12096    11614    11615 1
   12097    11614    11647 1
   12098    11614    11648 1
   12099    11614    11649 1
   12100    11615    11616 1
   12101    11615    11650 1
   12102    11615    11651 1
   12103    11616    11617 1
   12104    11616    11652 1
   12105    11616    11653 1
   12106    11617    11618 1
   12107    11617    11654 1
   12108    11617    11655 1
   12109    11618    11619 1
   12110    11618    11656 1
   12111    11618    11657 1
   12112    11619    11620 1
   12113    11619    11658 1
   12114    11619    11659 1
   12115    11620    11621 1
   12116    11620    11660 1
   12117    11620    11661 1
   12118    11621    11622 1
   12119    11621    11662 1
   12120    11621    11663 1
   12121    11622    11623 1
   12122    11622    11629 1
   12123    11622    11664 1
   12124    11623    11624 1
   12125    11623    11665 1
   12126    11623    11666 1
   12127    11624    11625 1
   12128    11624    11667 1
   12129    11624    11668 1
   12130    11625    11626 1
   12131    11625    11669 1
   12132    11625    11670 1
   12133    11626    11627 1
   12134    11626    11671 1
   12135    11626    11672 1
   12136    11627    11628 1
   12137    11627    11673 1
   12138    11627    11674 1
   12139    11628    11675 1
   12140    11628    11676 1
   12141    11628    11677 1
   12142    11629    11630 1
   12143    11629    11678 1
   12144    11629    11679 1
   12145    11630    11631 1
   12146    11631    11632 1
   12147    11631    11680 1
   12148    11631    11681 1
   12149    11632    11633 1
   12150    11632    11639 1
   12151    11632    11682 1
   12152    11633    11634 1
   12153    11633    11683 1
   12154    11633    11684 1
   12155    11634    11635 1
   12156    11634    11685 1
   12157    11634    11686 1
   12158    11635    11636 1
   12159    11635    11687 1
   12160    11635    11688 1
   12161    11636    11637 1
   12162    11636    11689 1
   12163    11636    11690 1
   12164    11637    11638 1
   12165    11637    11691 1
   12166    11637    11692 1
   12167    11638    11693 1
   12168    11638    11694 1
   12169    11638    11695 1
   12170    11639    11640 1
   12171    11639    11696 1
   12172    11639    11697 1
   12173    11640    11641 1
   12174    11640    11698 1
   12175    11640    11699 1
   12176    11641    11642 1
   12177    11641    11700 1
   12178    11641    11701 1
   12179    11642    11643 1
   12180    11642    11702 1
   12181    11642    11703 1
   12182    11643    11644 1
   12183    11643    11704 1
   12184    11643    11705 1
   12185    11644    11645 1
   12186    11644    11706 1
   12187    11644    11707 1
   12188    11645    11646 1
   12189    11645    11708 1
   12190    11645    11709 1
   12191    11646    11710 1
   12192    11646    11711 1
   12193    11646    11712 1
   12194    11713    11714 1
   12195    11713    11720 1
   12196    11713    11752 1
   12197    11714    11715 1
   12198    11714    11718 1
   12199    11715    11716 1
   12200    11715    11719 1
   12201    11716    11717 1
   12202    11717    11718 1
   12203    11717    11728 1
   12204    11718    11724 1
   12205    11719    11720 1
   12206    11719    11723 1
   12207    11720    11721 1
   12208    11721    11722 1
   12209    11721    11725 1
   12210    11722    11723 1
   12211    11726    11727 1
   12212    11726    11734 1
   12213    11727    11728 1
   12214    11727    11735 1
   12215    11728    11729 1
   12216    11729    11730 1
   12217    11729    11733 1
   12218    11730    11731 1
   12219    11731    11732 1
   12220    11732    11733 1
   12221    11733    11734 1
   12222    11734    11844 1
   12223    11736    11737 1
   12224    11736    11769 1
   12225    11736    11770 1
   12226    11736    11771 1
   12227    11737    11738 1
   12228    11737    11772 1
   12229    11737    11773 1
   12230    11738    11739 1
   12231    11738    11774 1
   12232    11738    11775 1
   12233    11739    11740 1
   12234    11739    11776 1
   12235    11739    11777 1
   12236    11740    11741 1
   12237    11740    11778 1
   12238    11740    11779 1
   12239    11741    11742 1
   12240    11741    11780 1
   12241    11741    11781 1
   12242    11742    11743 1
   12243    11742    11782 1
   12244    11742    11783 1
   12245    11743    11744 1
   12246    11743    11784 1
   12247    11743    11785 1
   12248    11744    11745 1
   12249    11744    11751 1
   12250    11744    11786 1
   12251    11745    11746 1
   12252    11745    11787 1
   12253    11745    11788 1
   12254    11746    11747 1
   12255    11746    11789 1
   12256    11746    11790 1
   12257    11747    11748 1
   12258    11747    11791 1
   12259    11747    11792 1
   12260    11748    11749 1
   12261    11748    11793 1
   12262    11748    11794 1
   12263    11749    11750 1
   12264    11749    11795 1
   12265    11749    11796 1
   12266    11750    11797 1
   12267    11750    11798 1
   12268    11750    11799 1
   12269    11751    11752 1
   12270    11751    11800 1
   12271    11751    11801 1
   12272    11752    11753 1
   12273    11753    11754 1
   12274    11753    11802 1
   12275    11753    11803 1
   12276    11754    11755 1
   12277    11754    11761 1
   12278    11754    11804 1
   12279    11755    11756 1
   12280    11755    11805 1
   12281    11755    11806 1
   12282    11756    11757 1
   12283    11756    11807 1
   12284    11756    11808 1
   12285    11757    11758 1
   12286    11757    11809 1
   12287    11757    11810 1
   12288    11758    11759 1
   12289    11758    11811 1
   12290    11758    11812 1
   12291    11759    11760 1
   12292    11759    11813 1
   12293    11759    11814 1
   12294    11760    11815 1
   12295    11760    11816 1
   12296    11760    11817 1
   12297    11761    11762 1
   12298    11761    11818 1
   12299    11761    11819 1
   12300    11762    11763 1
   12301    11762    11820 1
   12302    11762    11821 1
   12303    11763    11764 1
   12304    11763    11822 1
   12305    11763    11823 1
   12306    11764    11765 1
   12307    11764    11824 1
   12308    11764    11825 1
   12309    11765    11766 1
   12310    11765    11826 1
   12311    11765    11827 1
   12312    11766    11767 1
   12313    11766    11828 1
   12314    11766    11829 1
   12315    11767    11768 1
   12316    11767    11830 1
   12317    11767    11831 1
   12318    11768    11832 1
   12319    11768    11833 1
   12320    11768    11834 1
   12321    11835    11836 1
   12322    11835    11842 1
   12323    11835    11874 1
   12324    11836    11837 1
   12325    11836    11840 1
   12326    11837    11838 1
   12327    11837    11841 1
   12328    11838    11839 1
   12329    11839    11840 1
   12330    11839    11850 1
   12331    11840    11846 1
   12332    11841    11842 1
   12333    11841    11845 1
   12334    11842    11843 1
   12335    11843    11844 1
   12336    11843    11847 1
   12337    11844    11845 1
   12338    11848    11849 1
   12339    11848    11856 1
   12340    11849    11850 1
   12341    11849    11857 1
   12342    11850    11851 1
   12343    11851    11852 1
   12344    11851    11855 1
   12345    11852    11853 1
   12346    11853    11854 1
   12347    11854    11855 1
   12348    11855    11856 1
   12349    11856    11966 1
   12350    11858    11859 1
   12351    11858    11891 1
   12352    11858    11892 1
   12353    11858    11893 1
   12354    11859    11860 1
   12355    11859    11894 1
   12356    11859    11895 1
   12357    11860    11861 1
   12358    11860    11896 1
   12359    11860    11897 1
   12360    11861    11862 1
   12361    11861    11898 1
   12362    11861    11899 1
   12363    11862    11863 1
   12364    11862    11900 1
   12365    11862    11901 1
   12366    11863    11864 1
   12367    11863    11902 1
   12368    11863    11903 1
   12369    11864    11865 1
   12370    11864    11904 1
   12371    11864    11905 1
   12372    11865    11866 1
   12373    11865    11906 1
   12374    11865    11907 1
   12375    11866    11867 1
   12376    11866    11873 1
   12377    11866    11908 1
   12378    11867    11868 1
   12379    11867    11909 1
   12380    11867    11910 1
   12381    11868    11869 1
   12382    11868    11911 1
   12383    11868    11912 1
   12384    11869    11870 1
   12385    11869    11913 1
   12386    11869    11914 1
   12387    11870    11871 1
   12388    11870    11915 1
   12389    11870    11916 1
   12390    11871    11872 1
   12391    11871    11917 1
   12392    11871    11918 1
   12393    11872    11919 1
   12394    11872    11920 1
   12395    11872    11921 1
   12396    11873    11874 1
   12397    11873    11922 1
   12398    11873    11923 1
   12399    11874    11875 1
   12400    11875    11876 1
   12401    11875    11924 1
   12402    11875    11925 1
   12403    11876    11877 1
   12404    11876    11883 1
   12405    11876    11926 1
   12406    11877    11878 1
   12407    11877    11927 1
   12408    11877    11928 1
   12409    11878    11879 1
   12410    11878    11929 1
   12411    11878    11930 1
   12412    11879    11880 1
   12413    11879    11931 1
   12414    11879    11932 1
   12415    11880    11881 1
   12416    11880    11933 1
   12417    11880    11934 1
   12418    11881    11882 1
   12419    11881    11935 1
   12420    11881    11936 1
   12421    11882    11937 1
   12422    11882    11938 1
   12423    11882    11939 1
   12424    11883    11884 1
   12425    11883    11940 1
   12426    11883    11941 1
   12427    11884    11885 1
   12428    11884    11942 1
   12429    11884    11943 1
   12430    11885    11886 1
   12431    11885    11944 1
   12432    11885    11945 1
   12433    11886    11887 1
   12434    11886    11946 1
   12435    11886    11947 1
   12436    11887    11888 1
   12437    11887    11948 1
   12438    11887    11949 1
   12439    11888    11889 1
   12440    11888    11950 1
   12441    11888    11951 1
   12442    11889    11890 1
   12443    11889    11952 1
   12444    11889    11953 1
   12445    11890    11954 1
   12446    11890    11955 1
   12447    11890    11956 1
   12448    11957    11958 1
   12449    11957    11964 1
   12450    11957    11996 1
   12451    11958    11959 1
   12452    11958    11962 1
   12453    11959    11960 1
   12454    11959    11963 1
   12455    11960    11961 1
   12456    11961    11962 1
   12457    11961    11972 1
   12458    11962    11968 1
   12459    11963    11964 1
   12460    11963    11967 1
   12461    11964    11965 1
   12462    11965    11966 1
   12463    11965    11969 1
   12464    11966    11967 1
   12465    11970    11971 1
   12466    11970    11978 1
   12467    11971    11972 1
   12468    11971    11979 1
   12469    11972    11973 1
   12470    11973    11974 1
   12471    11973    11977 1
   12472    11974    11975 1
   12473    11975    11976 1
   12474    11976    11977 1
   12475    11977    11978 1
   12476    11978    12088 1
   12477    11980    11981 1
   12478    11980    12013 1
   12479    11980    12014 1
   12480    11980    12015 1
   12481    11981    11982 1
   12482    11981    12016 1
   12483    11981    12017 1
   12484    11982    11983 1
   12485    11982    12018 1
   12486    11982    12019 1
   12487    11983    11984 1
   12488    11983    12020 1
   12489    11983    12021 1
   12490    11984    11985 1
   12491    11984    12022 1
   12492    11984    12023 1
   12493    11985    11986 1
   12494    11985    12024 1
   12495    11985    12025 1
   12496    11986    11987 1
   12497    11986    12026 1
   12498    11986    12027 1
   12499    11987    11988 1
   12500    11987    12028 1
   12501    11987    12029 1
   12502    11988    11989 1
   12503    11988    11995 1
   12504    11988    12030 1
   12505    11989    11990 1
   12506    11989    12031 1
   12507    11989    12032 1
   12508    11990    11991 1
   12509    11990    12033 1
   12510    11990    12034 1
   12511    11991    11992 1
   12512    11991    12035 1
   12513    11991    12036 1
   12514    11992    11993 1
   12515    11992    12037 1
   12516    11992    12038 1
   12517    11993    11994 1
   12518    11993    12039 1
   12519    11993    12040 1
   12520    11994    12041 1
   12521    11994    12042 1
   12522    11994    12043 1
   12523    11995    11996 1
   12524    11995    12044 1
   12525    11995    12045 1
   12526    11996    11997 1
   12527    11997    11998 1
   12528    11997    12046 1
   12529    11997    12047 1
   12530    11998    11999 1
   12531    11998    12005 1
   12532    11998    12048 1
   12533    11999    12000 1
   12534    11999    12049 1
   12535    11999    12050 1
   12536    12000    12001 1
   12537    12000    12051 1
   12538    12000    12052 1
   12539    12001    12002 1
   12540    12001    12053 1
   12541    12001    12054 1
   12542    12002    12003 1
   12543    12002    12055 1
   12544    12002    12056 1
   12545    12003    12004 1
   12546    12003    12057 1
   12547    12003    12058 1
   12548    12004    12059 1
   12549    12004    12060 1
   12550    12004    12061 1
   12551    12005    12006 1
   12552    12005    12062 1
   12553    12005    12063 1
   12554    12006    12007 1
   12555    12006    12064 1
   12556    12006    12065 1
   12557    12007    12008 1
   12558    12007    12066 1
   12559    12007    12067 1
   12560    12008    12009 1
   12561    12008    12068 1
   12562    12008    12069 1
   12563    12009    12010 1
   12564    12009    12070 1
   12565    12009    12071 1
   12566    12010    12011 1
   12567    12010    12072 1
   12568    12010    12073 1
   12569    12011    12012 1
   12570    12011    12074 1
   12571    12011    12075 1
   12572    12012    12076 1
   12573    12012    12077 1
   12574    12012    12078 1
   12575    12079    12080 1
   12576    12079    12086 1
   12577    12079    12118 1
   12578    12080    12081 1
   12579    12080    12084 1
   12580    12081    12082 1
   12581    12081    12085 1
   12582    12082    12083 1
   12583    12083    12084 1
   12584    12083    12094 1
   12585    12084    12090 1
   12586    12085    12086 1
   12587    12085    12089 1
   12588    12086    12087 1
   12589    12087    12088 1
   12590    12087    12091 1
   12591    12088    12089 1
   12592    12092    12093 1
   12593    12092    12100 1
   12594    12093    12094 1
   12595    12093    12101 1
   12596    12094    12095 1
   12597    12095    12096 1
   12598    12095    12099 1
   12599    12096    12097 1
   12600    12097    12098 1
   12601    12098    12099 1
   12602    12099    12100 1
   12603    12100    12210 1
   12604    12102    12103 1
   12605    12102    12135 1
   12606    12102    12136 1
   12607    12102    12137 1
   12608    12103    12104 1
   12609    12103    12138 1
   12610    12103    12139 1
   12611    12104    12105 1
   12612    12104    12140 1
   12613    12104    12141 1
   12614    12105    12106 1
   12615    12105    12142 1
   12616    12105    12143 1
   12617    12106    12107 1
   12618    12106    12144 1
   12619    12106    12145 1
   12620    12107    12108 1
   12621    12107    12146 1
   12622    12107    12147 1
   12623    12108    12109 1
   12624    12108    12148 1
   12625    12108    12149 1
   12626    12109    12110 1
   12627    12109    12150 1
   12628    12109    12151 1
   12629    12110    12111 1
   12630    12110    12117 1
   12631    12110    12152 1
   12632    12111    12112 1
   12633    12111    12153 1
   12634    12111    12154 1
   12635    12112    12113 1
   12636    12112    12155 1
   12637    12112    12156 1
   12638    12113    12114 1
   12639    12113    12157 1
   12640    12113    12158 1
   12641    12114    12115 1
   12642    12114    12159 1
   12643    12114    12160 1
   12644    12115    12116 1
   12645    12115    12161 1
   12646    12115    12162 1
   12647    12116    12163 1
   12648    12116    12164 1
   12649    12116    12165 1
   12650    12117    12118 1
   12651    12117    12166 1
   12652    12117    12167 1
   12653    12118    12119 1
   12654    12119    12120 1
   12655    12119    12168 1
   12656    12119    12169 1
   12657    12120    12121 1
   12658    12120    12127 1
   12659    12120    12170 1
   12660    12121    12122 1
   12661    12121    12171 1
   12662    12121    12172 1
   12663    12122    12123 1
   12664    12122    12173 1
   12665    12122    12174 1
   12666    12123    12124 1
   12667    12123    12175 1
   12668    12123    12176 1
   12669    12124    12125 1
   12670    12124    12177 1
   12671    12124    12178 1
   12672    12125    12126 1
   12673    12125    12179 1
   12674    12125    12180 1
   12675    12126    12181 1
   12676    12126    12182 1
   12677    12126    12183 1
   12678    12127    12128 1
   12679    12127    12184 1
   12680    12127    12185 1
   12681    12128    12129 1
   12682    12128    12186 1
   12683    12128    12187 1
   12684    12129    12130 1
   12685    12129    12188 1
   12686    12129    12189 1
   12687    12130    12131 1
   12688    12130    12190 1
   12689    12130    12191 1
   12690    12131    12132 1
   12691    12131    12192 1
   12692    12131    12193 1
   12693    12132    12133 1
   12694    12132    12194 1
   12695    12132    12195 1
   12696    12133    12134 1
   12697    12133    12196 1
   12698    12133    12197 1
   12699    12134    12198 1
   12700    12134    12199 1
   12701    12134    12200 1
   12702    12201    12202 1
   12703    12201    12208 1
   12704    12201    12240 1
   12705    12202    12203 1
   12706    12202    12206 1
   12707    12203    12204 1
   12708    12203    12207 1
   12709    12204    12205 1
   12710    12205    12206 1
   12711    12205    12216 1
   12712    12206    12212 1
   12713    12207    12208 1
   12714    12207    12211 1
   12715    12208    12209 1
   12716    12209    12210 1
   12717    12209    12213 1
   12718    12210    12211 1
   12719    12214    12215 1
   12720    12214    12222 1
   12721    12215    12216 1
   12722    12215    12223 1
   12723    12216    12217 1
   12724    12217    12218 1
   12725    12217    12221 1
   12726    12218    12219 1
   12727    12219    12220 1
   12728    12220    12221 1
   12729    12221    12222 1
   12730    12222    12332 1
   12731    12224    12225 1
   12732    12224    12257 1
   12733    12224    12258 1
   12734    12224    12259 1
   12735    12225    12226 1
   12736    12225    12260 1
   12737    12225    12261 1
   12738    12226    12227 1
   12739    12226    12262 1
   12740    12226    12263 1
   12741    12227    12228 1
   12742    12227    12264 1
   12743    12227    12265 1
   12744    12228    12229 1
   12745    12228    12266 1
   12746    12228    12267 1
   12747    12229    12230 1
   12748    12229    12268 1
   12749    12229    12269 1
   12750    12230    12231 1
   12751    12230    12270 1
   12752    12230    12271 1
   12753    12231    12232 1
   12754    12231    12272 1
   12755    12231    12273 1
   12756    12232    12233 1
   12757    12232    12239 1
   12758    12232    12274 1
   12759    12233    12234 1
   12760    12233    12275 1
   12761    12233    12276 1
   12762    12234    12235 1
   12763    12234    12277 1
   12764    12234    12278 1
   12765    12235    12236 1
   12766    12235    12279 1
   12767    12235    12280 1
   12768    12236    12237 1
   12769    12236    12281 1
   12770    12236    12282 1
   12771    12237    12238 1
   12772    12237    12283 1
   12773    12237    12284 1
   12774    12238    12285 1
   12775    12238    12286 1
   12776    12238    12287 1
   12777    12239    12240 1
   12778    12239    12288 1
   12779    12239    12289 1
   12780    12240    12241 1
   12781    12241    12242 1
   12782    12241    12290 1
   12783    12241    12291 1
   12784    12242    12243 1
   12785    12242    12249 1
   12786    12242    12292 1
   12787    12243    12244 1
   12788    12243    12293 1
   12789    12243    12294 1
   12790    12244    12245 1
   12791    12244    12295 1
   12792    12244    12296 1
   12793    12245    12246 1
   12794    12245    12297 1
   12795    12245    12298 1
   12796    12246    12247 1
   12797    12246    12299 1
   12798    12246    12300 1
   12799    12247    12248 1
   12800    12247    12301 1
   12801    12247    12302 1
   12802    12248    12303 1
   12803    12248    12304 1
   12804    12248    12305 1
   12805    12249    12250 1
   12806    12249    12306 1
   12807    12249    12307 1
   12808    12250    12251 1
   12809    12250    12308 1
   12810    12250    12309 1
   12811    12251    12252 1
   12812    12251    12310 1
   12813    12251    12311 1
   12814    12252    12253 1
   12815    12252    12312 1
   12816    12252    12313 1
   12817    12253    12254 1
   12818    12253    12314 1
   12819    12253    12315 1
   12820    12254    12255 1
   12821    12254    12316 1
   12822    12254    12317 1
   12823    12255    12256 1
   12824    12255    12318 1
   12825    12255    12319 1
   12826    12256    12320 1
   12827    12256    12321 1
   12828    12256    12322 1
   12829    12323    12324 1
   12830    12323    12330 1
   12831    12323    12362 1
   12832    12324    12325 1
   12833    12324    12328 1
   12834    12325    12326 1
   12835    12325    12329 1
   12836    12326    12327 1
   12837    12327    12328 1
   12838    12327    12338 1
   12839    12328    12334 1
   12840    12329    12330 1
   12841    12329    12333 1
   12842    12330    12331 1
   12843    12331    12332 1
   12844    12331    12335 1
   12845    12332    12333 1
   12846    12336    12337 1
   12847    12336    12344 1
   12848    12337    12338 1
   12849    12337    12345 1
   12850    12338    12339 1
   12851    12339    12340 1
   12852    12339    12343 1
   12853    12340    12341 1
   12854    12341    12342 1
   12855    12342    12343 1
   12856    12343    12344 1
   12857    12344    12454 1
   12858    12346    12347 1
   12859    12346    12379 1
   12860    12346    12380 1
   12861    12346    12381 1
   12862    12347    12348 1
   12863    12347    12382 1
   12864    12347    12383 1
   12865    12348    12349 1
   12866    12348    12384 1
   12867    12348    12385 1
   12868    12349    12350 1
   12869    12349    12386 1
   12870    12349    12387 1
   12871    12350    12351 1
   12872    12350    12388 1
   12873    12350    12389 1
   12874    12351    12352 1
   12875    12351    12390 1
   12876    12351    12391 1
   12877    12352    12353 1
   12878    12352    12392 1
   12879    12352    12393 1
   12880    12353    12354 1
   12881    12353    12394 1
   12882    12353    12395 1
   12883    12354    12355 1
   12884    12354    12361 1
   12885    12354    12396 1
   12886    12355    12356 1
   12887    12355    12397 1
   12888    12355    12398 1
   12889    12356    12357 1
   12890    12356    12399 1
   12891    12356    12400 1
   12892    12357    12358 1
   12893    12357    12401 1
   12894    12357    12402 1
   12895    12358    12359 1
   12896    12358    12403 1
   12897    12358    12404 1
   12898    12359    12360 1
   12899    12359    12405 1
   12900    12359    12406 1
   12901    12360    12407 1
   12902    12360    12408 1
   12903    12360    12409 1
   12904    12361    12362 1
   12905    12361    12410 1
   12906    12361    12411 1
   12907    12362    12363 1
   12908    12363    12364 1
   12909    12363    12412 1
   12910    12363    12413 1
   12911    12364    12365 1
   12912    12364    12371 1
   12913    12364    12414 1
   12914    12365    12366 1
   12915    12365    12415 1
   12916    12365    12416 1
   12917    12366    12367 1
   12918    12366    12417 1
   12919    12366    12418 1
   12920    12367    12368 1
   12921    12367    12419 1
   12922    12367    12420 1
   12923    12368    12369 1
   12924    12368    12421 1
   12925    12368    12422 1
   12926    12369    12370 1
   12927    12369    12423 1
   12928    12369    12424 1
   12929    12370    12425 1
   12930    12370    12426 1
   12931    12370    12427 1
   12932    12371    12372 1
   12933    12371    12428 1
   12934    12371    12429 1
   12935    12372    12373 1
   12936    12372    12430 1
   12937    12372    12431 1
   12938    12373    12374 1
   12939    12373    12432 1
   12940    12373    12433 1
   12941    12374    12375 1
   12942    12374    12434 1
   12943    12374    12435 1
   12944    12375    12376 1
   12945    12375    12436 1
   12946    12375    12437 1
   12947    12376    12377 1
   12948    12376    12438 1
   12949    12376    12439 1
   12950    12377    12378 1
   12951    12377    12440 1
   12952    12377    12441 1
   12953    12378    12442 1
   12954    12378    12443 1
   12955    12378    12444 1
   12956    12445    12446 1
   12957    12445    12452 1
   12958    12445    12484 1
   12959    12446    12447 1
   12960    12446    12450 1
   12961    12447    12448 1
   12962    12447    12451 1
   12963    12448    12449 1
   12964    12449    12450 1
   12965    12449    12460 1
   12966    12450    12456 1
   12967    12451    12452 1
   12968    12451    12455 1
   12969    12452    12453 1
   12970    12453    12454 1
   12971    12453    12457 1
   12972    12454    12455 1
   12973    12458    12459 1
   12974    12458    12466 1
   12975    12459    12460 1
   12976    12459    12467 1
   12977    12460    12461 1
   12978    12461    12462 1
   12979    12461    12465 1
   12980    12462    12463 1
   12981    12463    12464 1
   12982    12464    12465 1
   12983    12465    12466 1
   12984    12466    12576 1
   12985    12468    12469 1
   12986    12468    12501 1
   12987    12468    12502 1
   12988    12468    12503 1
   12989    12469    12470 1
   12990    12469    12504 1
   12991    12469    12505 1
   12992    12470    12471 1
   12993    12470    12506 1
   12994    12470    12507 1
   12995    12471    12472 1
   12996    12471    12508 1
   12997    12471    12509 1
   12998    12472    12473 1
   12999    12472    12510 1
   13000    12472    12511 1
   13001    12473    12474 1
   13002    12473    12512 1
   13003    12473    12513 1
   13004    12474    12475 1
   13005    12474    12514 1
   13006    12474    12515 1
   13007    12475    12476 1
   13008    12475    12516 1
   13009    12475    12517 1
   13010    12476    12477 1
   13011    12476    12483 1
   13012    12476    12518 1
   13013    12477    12478 1
   13014    12477    12519 1
   13015    12477    12520 1
   13016    12478    12479 1
   13017    12478    12521 1
   13018    12478    12522 1
   13019    12479    12480 1
   13020    12479    12523 1
   13021    12479    12524 1
   13022    12480    12481 1
   13023    12480    12525 1
   13024    12480    12526 1
   13025    12481    12482 1
   13026    12481    12527 1
   13027    12481    12528 1
   13028    12482    12529 1
   13029    12482    12530 1
   13030    12482    12531 1
   13031    12483    12484 1
   13032    12483    12532 1
   13033    12483    12533 1
   13034    12484    12485 1
   13035    12485    12486 1
   13036    12485    12534 1
   13037    12485    12535 1
   13038    12486    12487 1
   13039    12486    12493 1
   13040    12486    12536 1
   13041    12487    12488 1
   13042    12487    12537 1
   13043    12487    12538 1
   13044    12488    12489 1
   13045    12488    12539 1
   13046    12488    12540 1
   13047    12489    12490 1
   13048    12489    12541 1
   13049    12489    12542 1
   13050    12490    12491 1
   13051    12490    12543 1
   13052    12490    12544 1
   13053    12491    12492 1
   13054    12491    12545 1
   13055    12491    12546 1
   13056    12492    12547 1
   13057    12492    12548 1
   13058    12492    12549 1
   13059    12493    12494 1
   13060    12493    12550 1
   13061    12493    12551 1
   13062    12494    12495 1
   13063    12494    12552 1
   13064    12494    12553 1
   13065    12495    12496 1
   13066    12495    12554 1
   13067    12495    12555 1
   13068    12496    12497 1
   13069    12496    12556 1
   13070    12496    12557 1
   13071    12497    12498 1
   13072    12497    12558 1
   13073    12497    12559 1
   13074    12498    12499 1
   13075    12498    12560 1
   13076    12498    12561 1
   13077    12499    12500 1
   13078    12499    12562 1
   13079    12499    12563 1
   13080    12500    12564 1
   13081    12500    12565 1
   13082    12500    12566 1
   13083    12567    12568 1
   13084    12567    12574 1
   13085    12567    12606 1
   13086    12568    12569 1
   13087    12568    12572 1
   13088    12569    12570 1
   13089    12569    12573 1
   13090    12570    12571 1
   13091    12571    12572 1
   13092    12571    12582 1
   13093    12572    12578 1
   13094    12573    12574 1
   13095    12573    12577 1
   13096    12574    12575 1
   13097    12575    12576 1
   13098    12575    12579 1
   13099    12576    12577 1
   13100    12580    12581 1
   13101    12580    12588 1
   13102    12581    12582 1
   13103    12581    12589 1
   13104    12582    12583 1
   13105    12583    12584 1
   13106    12583    12587 1
   13107    12584    12585 1
   13108    12585    12586 1
   13109    12586    12587 1
   13110    12587    12588 1
   13111    12588    12698 1
   13112    12590    12591 1
   13113    12590    12623 1
   13114    12590    12624 1
   13115    12590    12625 1
   13116    12591    12592 1
   13117    12591    12626 1
   13118    12591    12627 1
   13119    12592    12593 1
   13120    12592    12628 1
   13121    12592    12629 1
   13122    12593    12594 1
   13123    12593    12630 1
   13124    12593    12631 1
   13125    12594    12595 1
   13126    12594    12632 1
   13127    12594    12633 1
   13128    12595    12596 1
   13129    12595    12634 1
   13130    12595    12635 1
   13131    12596    12597 1
   13132    12596    12636 1
   13133    12596    12637 1
   13134    12597    12598 1
   13135    12597    12638 1
   13136    12597    12639 1
   13137    12598    12599 1
   13138    12598    12605 1
   13139    12598    12640 1
   13140    12599    12600 1
   13141    12599    12641 1
   13142    12599    12642 1
   13143    12600    12601 1
   13144    12600    12643 1
   13145    12600    12644 1
   13146    12601    12602 1
   13147    12601    12645 1
   13148    12601    12646 1
   13149    12602    12603 1
   13150    12602    12647 1
   13151    12602    12648 1
   13152    12603    12604 1
   13153    12603    12649 1
   13154    12603    12650 1
   13155    12604    12651 1
   13156    12604    12652 1
   13157    12604    12653 1
   13158    12605    12606 1
   13159    12605    12654 1
   13160    12605    12655 1
   13161    12606    12607 1
   13162    12607    12608 1
   13163    12607    12656 1
   13164    12607    12657 1
   13165    12608    12609 1
   13166    12608    12615 1
   13167    12608    12658 1
   13168    12609    12610 1
   13169    12609    12659 1
   13170    12609    12660 1
   13171    12610    12611 1
   13172    12610    12661 1
   13173    12610    12662 1
   13174    12611    12612 1
   13175    12611    12663 1
   13176    12611    12664 1
   13177    12612    12613 1
   13178    12612    12665 1
   13179    12612    12666 1
   13180    12613    12614 1
   13181    12613    12667 1
   13182    12613    12668 1
   13183    12614    12669 1
   13184    12614    12670 1
   13185    12614    12671 1
   13186    12615    12616 1
   13187    12615    12672 1
   13188    12615    12673 1
   13189    12616    12617 1
   13190    12616    12674 1
   13191    12616    12675 1
   13192    12617    12618 1
   13193    12617    12676 1
   13194    12617    12677 1
   13195    12618    12619 1
   13196    12618    12678 1
   13197    12618    12679 1
   13198    12619    12620 1
   13199    12619    12680 1
   13200    12619    12681 1
   13201    12620    12621 1
   13202    12620    12682 1
   13203    12620    12683 1
   13204    12621    12622 1
   13205    12621    12684 1
   13206    12621    12685 1
   13207    12622    12686 1
   13208    12622    12687 1
   13209    12622    12688 1
   13210    12689    12690 1
   13211    12689    12696 1
   13212    12689    12728 1
   13213    12690    12691 1
   13214    12690    12694 1
   13215    12691    12692 1
   13216    12691    12695 1
   13217    12692    12693 1
   13218    12693    12694 1
   13219    12693    12704 1
   13220    12694    12700 1
   13221    12695    12696 1
   13222    12695    12699 1
   13223    12696    12697 1
   13224    12697    12698 1
   13225    12697    12701 1
   13226    12698    12699 1
   13227    12702    12703 1
   13228    12702    12710 1
   13229    12703    12704 1
   13230    12703    12711 1
   13231    12704    12705 1
   13232    12705    12706 1
   13233    12705    12709 1
   13234    12706    12707 1
   13235    12707    12708 1
   13236    12708    12709 1
   13237    12709    12710 1
   13238    12710    12820 1
   13239    12712    12713 1
   13240    12712    12745 1
   13241    12712    12746 1
   13242    12712    12747 1
   13243    12713    12714 1
   13244    12713    12748 1
   13245    12713    12749 1
   13246    12714    12715 1
   13247    12714    12750 1
   13248    12714    12751 1
   13249    12715    12716 1
   13250    12715    12752 1
   13251    12715    12753 1
   13252    12716    12717 1
   13253    12716    12754 1
   13254    12716    12755 1
   13255    12717    12718 1
   13256    12717    12756 1
   13257    12717    12757 1
   13258    12718    12719 1
   13259    12718    12758 1
   13260    12718    12759 1
   13261    12719    12720 1
   13262    12719    12760 1
   13263    12719    12761 1
   13264    12720    12721 1
   13265    12720    12727 1
   13266    12720    12762 1
   13267    12721    12722 1
   13268    12721    12763 1
   13269    12721    12764 1
   13270    12722    12723 1
   13271    12722    12765 1
   13272    12722    12766 1
   13273    12723    12724 1
   13274    12723    12767 1
   13275    12723    12768 1
   13276    12724    12725 1
   13277    12724    12769 1
   13278    12724    12770 1
   13279    12725    12726 1
   13280    12725    12771 1
   13281    12725    12772 1
   13282    12726    12773 1
   13283    12726    12774 1
   13284    12726    12775 1
   13285    12727    12728 1
   13286    12727    12776 1
   13287    12727    12777 1
   13288    12728    12729 1
   13289    12729    12730 1
   13290    12729    12778 1
   13291    12729    12779 1
   13292    12730    12731 1
   13293    12730    12737 1
   13294    12730    12780 1
   13295    12731    12732 1
   13296    12731    12781 1
   13297    12731    12782 1
   13298    12732    12733 1
   13299    12732    12783 1
   13300    12732    12784 1
   13301    12733    12734 1
   13302    12733    12785 1
   13303    12733    12786 1
   13304    12734    12735 1
   13305    12734    12787 1
   13306    12734    12788 1
   13307    12735    12736 1
   13308    12735    12789 1
   13309    12735    12790 1
   13310    12736    12791 1
   13311    12736    12792 1
   13312    12736    12793 1
   13313    12737    12738 1
   13314    12737    12794 1
   13315    12737    12795 1
   13316    12738    12739 1
   13317    12738    12796 1
   13318    12738    12797 1
   13319    12739    12740 1
   13320    12739    12798 1
   13321    12739    12799 1
   13322    12740    12741 1
   13323    12740    12800 1
   13324    12740    12801 1
   13325    12741    12742 1
   13326    12741    12802 1
   13327    12741    12803 1
   13328    12742    12743 1
   13329    12742    12804 1
   13330    12742    12805 1
   13331    12743    12744 1
   13332    12743    12806 1
   13333    12743    12807 1
   13334    12744    12808 1
   13335    12744    12809 1
   13336    12744    12810 1
   13337    12811    12812 1
   13338    12811    12818 1
   13339    12811    12850 1
   13340    12812    12813 1
   13341    12812    12816 1
   13342    12813    12814 1
   13343    12813    12817 1
   13344    12814    12815 1
   13345    12815    12816 1
   13346    12815    12826 1
   13347    12816    12822 1
   13348    12817    12818 1
   13349    12817    12821 1
   13350    12818    12819 1
   13351    12819    12820 1
   13352    12819    12823 1
   13353    12820    12821 1
   13354    12824    12825 1
   13355    12824    12832 1
   13356    12825    12826 1
   13357    12825    12833 1
   13358    12826    12827 1
   13359    12827    12828 1
   13360    12827    12831 1
   13361    12828    12829 1
   13362    12829    12830 1
   13363    12830    12831 1
   13364    12831    12832 1
   13365    12832    12942 1
   13366    12834    12835 1
   13367    12834    12867 1
   13368    12834    12868 1
   13369    12834    12869 1
   13370    12835    12836 1
   13371    12835    12870 1
   13372    12835    12871 1
   13373    12836    12837 1
   13374    12836    12872 1
   13375    12836    12873 1
   13376    12837    12838 1
   13377    12837    12874 1
   13378    12837    12875 1
   13379    12838    12839 1
   13380    12838    12876 1
   13381    12838    12877 1
   13382    12839    12840 1
   13383    12839    12878 1
   13384    12839    12879 1
   13385    12840    12841 1
   13386    12840    12880 1
   13387    12840    12881 1
   13388    12841    12842 1
   13389    12841    12882 1
   13390    12841    12883 1
   13391    12842    12843 1
   13392    12842    12849 1
   13393    12842    12884 1
   13394    12843    12844 1
   13395    12843    12885 1
   13396    12843    12886 1
   13397    12844    12845 1
   13398    12844    12887 1
   13399    12844    12888 1
   13400    12845    12846 1
   13401    12845    12889 1
   13402    12845    12890 1
   13403    12846    12847 1
   13404    12846    12891 1
   13405    12846    12892 1
   13406    12847    12848 1
   13407    12847    12893 1
   13408    12847    12894 1
   13409    12848    12895 1
   13410    12848    12896 1
   13411    12848    12897 1
   13412    12849    12850 1
   13413    12849    12898 1
   13414    12849    12899 1
   13415    12850    12851 1
   13416    12851    12852 1
   13417    12851    12900 1
   13418    12851    12901 1
   13419    12852    12853 1
   13420    12852    12859 1
   13421    12852    12902 1
   13422    12853    12854 1
   13423    12853    12903 1
   13424    12853    12904 1
   13425    12854    12855 1
   13426    12854    12905 1
   13427    12854    12906 1
   13428    12855    12856 1
   13429    12855    12907 1
   13430    12855    12908 1
   13431    12856    12857 1
   13432    12856    12909 1
   13433    12856    12910 1
   13434    12857    12858 1
   13435    12857    12911 1
   13436    12857    12912 1
   13437    12858    12913 1
   13438    12858    12914 1
   13439    12858    12915 1
   13440    12859    12860 1
   13441    12859    12916 1
   13442    12859    12917 1
   13443    12860    12861 1
   13444    12860    12918 1
   13445    12860    12919 1
   13446    12861    12862 1
   13447    12861    12920 1
   13448    12861    12921 1
   13449    12862    12863 1
   13450    12862    12922 1
   13451    12862    12923 1
   13452    12863    12864 1
   13453    12863    12924 1
   13454    12863    12925 1
   13455    12864    12865 1
   13456    12864    12926 1
   13457    12864    12927 1
   13458    12865    12866 1
   13459    12865    12928 1
   13460    12865    12929 1
   13461    12866    12930 1
   13462    12866    12931 1
   13463    12866    12932 1
   13464    12933    12934 1
   13465    12933    12940 1
   13466    12933    12972 1
   13467    12934    12935 1
   13468    12934    12938 1
   13469    12935    12936 1
   13470    12935    12939 1
   13471    12936    12937 1
   13472    12937    12938 1
   13473    12937    12948 1
   13474    12938    12944 1
   13475    12939    12940 1
   13476    12939    12943 1
   13477    12940    12941 1
   13478    12941    12942 1
   13479    12941    12945 1
   13480    12942    12943 1
   13481    12946    12947 1
   13482    12946    12954 1
   13483    12947    12948 1
   13484    12947    12955 1
   13485    12948    12949 1
   13486    12949    12950 1
   13487    12949    12953 1
   13488    12950    12951 1
   13489    12951    12952 1
   13490    12952    12953 1
   13491    12953    12954 1
   13492    12954    13064 1
   13493    12956    12957 1
   13494    12956    12989 1
   13495    12956    12990 1
   13496    12956    12991 1
   13497    12957    12958 1
   13498    12957    12992 1
   13499    12957    12993 1
   13500    12958    12959 1
   13501    12958    12994 1
   13502    12958    12995 1
   13503    12959    12960 1
   13504    12959    12996 1
   13505    12959    12997 1
   13506    12960    12961 1
   13507    12960    12998 1
   13508    12960    12999 1
   13509    12961    12962 1
   13510    12961    13000 1
   13511    12961    13001 1
   13512    12962    12963 1
   13513    12962    13002 1
   13514    12962    13003 1
   13515    12963    12964 1
   13516    12963    13004 1
   13517    12963    13005 1
   13518    12964    12965 1
   13519    12964    12971 1
   13520    12964    13006 1
   13521    12965    12966 1
   13522    12965    13007 1
   13523    12965    13008 1
   13524    12966    12967 1
   13525    12966    13009 1
   13526    12966    13010 1
   13527    12967    12968 1
   13528    12967    13011 1
   13529    12967    13012 1
   13530    12968    12969 1
   13531    12968    13013 1
   13532    12968    13014 1
   13533    12969    12970 1
   13534    12969    13015 1
   13535    12969    13016 1
   13536    12970    13017 1
   13537    12970    13018 1
   13538    12970    13019 1
   13539    12971    12972 1
   13540    12971    13020 1
   13541    12971    13021 1
   13542    12972    12973 1
   13543    12973    12974 1
   13544    12973    13022 1
   13545    12973    13023 1
   13546    12974    12975 1
   13547    12974    12981 1
   13548    12974    13024 1
   13549    12975    12976 1
   13550    12975    13025 1
   13551    12975    13026 1
   13552    12976    12977 1
   13553    12976    13027 1
   13554    12976    13028 1
   13555    12977    12978 1
   13556    12977    13029 1
   13557    12977    13030 1
   13558    12978    12979 1
   13559    12978    13031 1
   13560    12978    13032 1
   13561    12979    12980 1
   13562    12979    13033 1
   13563    12979    13034 1
   13564    12980    13035 1
   13565    12980    13036 1
   13566    12980    13037 1
   13567    12981    12982 1
   13568    12981    13038 1
   13569    12981    13039 1
   13570    12982    12983 1
   13571    12982    13040 1
   13572    12982    13041 1
   13573    12983    12984 1
   13574    12983    13042 1
   13575    12983    13043 1
   13576    12984    12985 1
   13577    12984    13044 1
   13578    12984    13045 1
   13579    12985    12986 1
   13580    12985    13046 1
   13581    12985    13047 1
   13582    12986    12987 1
   13583    12986    13048 1
   13584    12986    13049 1
   13585    12987    12988 1
   13586    12987    13050 1
   13587    12987    13051 1
   13588    12988    13052 1
   13589    12988    13053 1
   13590    12988    13054 1
   13591    13055    13056 1
   13592    13055    13062 1
   13593    13055    13094 1
   13594    13056    13057 1
   13595    13056    13060 1
   13596    13057    13058 1
   13597    13057    13061 1
   13598    13058    13059 1
   13599    13059    13060 1
   13600    13059    13070 1
   13601    13060    13066 1
   13602    13061    13062 1
   13603    13061    13065 1
   13604    13062    13063 1
   13605    13063    13064 1
   13606    13063    13067 1
   13607    13064    13065 1
   13608    13068    13069 1
   13609    13068    13076 1
   13610    13069    13070 1
   13611    13069    13077 1
   13612    13070    13071 1
   13613    13071    13072 1
   13614    13071    13075 1
   13615    13072    13073 1
   13616    13073    13074 1
   13617    13074    13075 1
   13618    13075    13076 1
   13619    13076    13186 1
   13620    13078    13079 1
   13621    13078    13111 1
   13622    13078    13112 1
   13623    13078    13113 1
   13624    13079    13080 1
   13625    13079    13114 1
   13626    13079    13115 1
   13627    13080    13081 1
   13628    13080    13116 1
   13629    13080    13117 1
   13630    13081    13082 1
   13631    13081    13118 1
   13632    13081    13119 1
   13633    13082    13083 1
   13634    13082    13120 1
   13635    13082    13121 1
   13636    13083    13084 1
   13637    13083    13122 1
   13638    13083    13123 1
   13639    13084    13085 1
   13640    13084    13124 1
   13641    13084    13125 1
   13642    13085    13086 1
   13643    13085    13126 1
   13644    13085    13127 1
   13645    13086    13087 1
   13646    13086    13093 1
   13647    13086    13128 1
   13648    13087    13088 1
   13649    13087    13129 1
   13650    13087    13130 1
   13651    13088    13089 1
   13652    13088    13131 1
   13653    13088    13132 1
   13654    13089    13090 1
   13655    13089    13133 1
   13656    13089    13134 1
   13657    13090    13091 1
   13658    13090    13135 1
   13659    13090    13136 1
   13660    13091    13092 1
   13661    13091    13137 1
   13662    13091    13138 1
   13663    13092    13139 1
   13664    13092    13140 1
   13665    13092    13141 1
   13666    13093    13094 1
   13667    13093    13142 1
   13668    13093    13143 1
   13669    13094    13095 1
   13670    13095    13096 1
   13671    13095    13144 1
   13672    13095    13145 1
   13673    13096    13097 1
   13674    13096    13103 1
   13675    13096    13146 1
   13676    13097    13098 1
   13677    13097    13147 1
   13678    13097    13148 1
   13679    13098    13099 1
   13680    13098    13149 1
   13681    13098    13150 1
   13682    13099    13100 1
   13683    13099    13151 1
   13684    13099    13152 1
   13685    13100    13101 1
   13686    13100    13153 1
   13687    13100    13154 1
   13688    13101    13102 1
   13689    13101    13155 1
   13690    13101    13156 1
   13691    13102    13157 1
   13692    13102    13158 1
   13693    13102    13159 1
   13694    13103    13104 1
   13695    13103    13160 1
   13696    13103    13161 1
   13697    13104    13105 1
   13698    13104    13162 1
   13699    13104    13163 1
   13700    13105    13106 1
   13701    13105    13164 1
   13702    13105    13165 1
   13703    13106    13107 1
   13704    13106    13166 1
   13705    13106    13167 1
   13706    13107    13108 1
   13707    13107    13168 1
   13708    13107    13169 1
   13709    13108    13109 1
   13710    13108    13170 1
   13711    13108    13171 1
   13712    13109    13110 1
   13713    13109    13172 1
   13714    13109    13173 1
   13715    13110    13174 1
   13716    13110    13175 1
   13717    13110    13176 1
   13718    13177    13178 1
   13719    13177    13184 1
   13720    13177    13216 1
   13721    13178    13179 1
   13722    13178    13182 1
   13723    13179    13180 1
   13724    13179    13183 1
   13725    13180    13181 1
   13726    13181    13182 1
   13727    13181    13192 1
   13728    13182    13188 1
   13729    13183    13184 1
   13730    13183    13187 1
   13731    13184    13185 1
   13732    13185    13186 1
   13733    13185    13189 1
   13734    13186    13187 1
   13735    13190    13191 1
   13736    13190    13198 1
   13737    13191    13192 1
   13738    13191    13199 1
   13739    13192    13193 1
   13740    13193    13194 1
   13741    13193    13197 1
   13742    13194    13195 1
   13743    13195    13196 1
   13744    13196    13197 1
   13745    13197    13198 1
   13746    13198    13308 1
   13747    13200    13201 1
   13748    13200    13233 1
   13749    13200    13234 1
   13750    13200    13235 1
   13751    13201    13202 1
   13752    13201    13236 1
   13753    13201    13237 1
   13754    13202    13203 1
   13755    13202    13238 1
   13756    13202    13239 1
   13757    13203    13204 1
   13758    13203    13240 1
   13759    13203    13241 1
   13760    13204    13205 1
   13761    13204    13242 1
   13762    13204    13243 1
   13763    13205    13206 1
   13764    13205    13244 1
   13765    13205    13245 1
   13766    13206    13207 1
   13767    13206    13246 1
   13768    13206    13247 1
   13769    13207    13208 1
   13770    13207    13248 1
   13771    13207    13249 1
   13772    13208    13209 1
   13773    13208    13215 1
   13774    13208    13250 1
   13775    13209    13210 1
   13776    13209    13251 1
   13777    13209    13252 1
   13778    13210    13211 1
   13779    13210    13253 1
   13780    13210    13254 1
   13781    13211    13212 1
   13782    13211    13255 1
   13783    13211    13256 1
   13784    13212    13213 1
   13785    13212    13257 1
   13786    13212    13258 1
   13787    13213    13214 1
   13788    13213    13259 1
   13789    13213    13260 1
   13790    13214    13261 1
   13791    13214    13262 1
   13792    13214    13263 1
   13793    13215    13216 1
   13794    13215    13264 1
   13795    13215    13265 1
   13796    13216    13217 1
   13797    13217    13218 1
   13798    13217    13266 1
   13799    13217    13267 1
   13800    13218    13219 1
   13801    13218    13225 1
   13802    13218    13268 1
   13803    13219    13220 1
   13804    13219    13269 1
   13805    13219    13270 1
   13806    13220    13221 1
   13807    13220    13271 1
   13808    13220    13272 1
   13809    13221    13222 1
   13810    13221    13273 1
   13811    13221    13274 1
   13812    13222    13223 1
   13813    13222    13275 1
   13814    13222    13276 1
   13815    13223    13224 1
   13816    13223    13277 1
   13817    13223    13278 1
   13818    13224    13279 1
   13819    13224    13280 1
   13820    13224    13281 1
   13821    13225    13226 1
   13822    13225    13282 1
   13823    13225    13283 1
   13824    13226    13227 1
   13825    13226    13284 1
   13826    13226    13285 1
   13827    13227    13228 1
   13828    13227    13286 1
   13829    13227    13287 1
   13830    13228    13229 1
   13831    13228    13288 1
   13832    13228    13289 1
   13833    13229    13230 1
   13834    13229    13290 1
   13835    13229    13291 1
   13836    13230    13231 1
   13837    13230    13292 1
   13838    13230    13293 1
   13839    13231    13232 1
   13840    13231    13294 1
   13841    13231    13295 1
   13842    13232    13296 1
   13843    13232    13297 1
   13844    13232    13298 1
   13845    13299    13300 1
   13846    13299    13306 1
   13847    13299    13338 1
   13848    13300    13301 1
   13849    13300    13304 1
   13850    13301    13302 1
   13851    13301    13305 1
   13852    13302    13303 1
   13853    13303    13304 1
   13854    13303    13314 1
   13855    13304    13310 1
   13856    13305    13306 1
   13857    13305    13309 1
   13858    13306    13307 1
   13859    13307    13308 1
   13860    13307    13311 1
   13861    13308    13309 1
   13862    13312    13313 1
   13863    13312    13320 1
   13864    13313    13314 1
   13865    13313    13321 1
   13866    13314    13315 1
   13867    13315    13316 1
   13868    13315    13319 1
   13869    13316    13317 1
   13870    13317    13318 1
   13871    13318    13319 1
   13872    13319    13320 1
   13873    13320    13430 1
   13874    13322    13323 1
   13875    13322    13355 1
   13876    13322    13356 1
   13877    13322    13357 1
   13878    13323    13324 1
   13879    13323    13358 1
   13880    13323    13359 1
   13881    13324    13325 1
   13882    13324    13360 1
   13883    13324    13361 1
   13884    13325    13326 1
   13885    13325    13362 1
   13886    13325    13363 1
   13887    13326    13327 1
   13888    13326    13364 1
   13889    13326    13365 1
   13890    13327    13328 1
   13891    13327    13366 1
   13892    13327    13367 1
   13893    13328    13329 1
   13894    13328    13368 1
   13895    13328    13369 1
   13896    13329    13330 1
   13897    13329    13370 1
   13898    13329    13371 1
   13899    13330    13331 1
   13900    13330    13337 1
   13901    13330    13372 1
   13902    13331    13332 1
   13903    13331    13373 1
   13904    13331    13374 1
   13905    13332    13333 1
   13906    13332    13375 1
   13907    13332    13376 1
   13908    13333    13334 1
   13909    13333    13377 1
   13910    13333    13378 1
   13911    13334    13335 1
   13912    13334    13379 1
   13913    13334    13380 1
   13914    13335    13336 1
   13915    13335    13381 1
   13916    13335    13382 1
   13917    13336    13383 1
   13918    13336    13384 1
   13919    13336    13385 1
   13920    13337    13338 1
   13921    13337    13386 1
   13922    13337    13387 1
   13923    13338    13339 1
   13924    13339    13340 1
   13925    13339    13388 1
   13926    13339    13389 1
   13927    13340    13341 1
   13928    13340    13347 1
   13929    13340    13390 1
   13930    13341    13342 1
   13931    13341    13391 1
   13932    13341    13392 1
   13933    13342    13343 1
   13934    13342    13393 1
   13935    13342    13394 1
   13936    13343    13344 1
   13937    13343    13395 1
   13938    13343    13396 1
   13939    13344    13345 1
   13940    13344    13397 1
   13941    13344    13398 1
   13942    13345    13346 1
   13943    13345    13399 1
   13944    13345    13400 1
   13945    13346    13401 1
   13946    13346    13402 1
   13947    13346    13403 1
   13948    13347    13348 1
   13949    13347    13404 1
   13950    13347    13405 1
   13951    13348    13349 1
   13952    13348    13406 1
   13953    13348    13407 1
   13954    13349    13350 1
   13955    13349    13408 1
   13956    13349    13409 1
   13957    13350    13351 1
   13958    13350    13410 1
   13959    13350    13411 1
   13960    13351    13352 1
   13961    13351    13412 1
   13962    13351    13413 1
   13963    13352    13353 1
   13964    13352    13414 1
   13965    13352    13415 1
   13966    13353    13354 1
   13967    13353    13416 1
   13968    13353    13417 1
   13969    13354    13418 1
   13970    13354    13419 1
   13971    13354    13420 1
   13972    13421    13422 1
   13973    13421    13428 1
   13974    13421    13460 1
   13975    13422    13423 1
   13976    13422    13426 1
   13977    13423    13424 1
   13978    13423    13427 1
   13979    13424    13425 1
   13980    13425    13426 1
   13981    13425    13436 1
   13982    13426    13432 1
   13983    13427    13428 1
   13984    13427    13431 1
   13985    13428    13429 1
   13986    13429    13430 1
   13987    13429    13433 1
   13988    13430    13431 1
   13989    13434    13435 1
   13990    13434    13442 1
   13991    13435    13436 1
   13992    13435    13443 1
   13993    13436    13437 1
   13994    13437    13438 1
   13995    13437    13441 1
   13996    13438    13439 1
   13997    13439    13440 1
   13998    13440    13441 1
   13999    13441    13442 1
   14000    13442    13552 1
   14001    13444    13445 1
   14002    13444    13477 1
   14003    13444    13478 1
   14004    13444    13479 1
   14005    13445    13446 1
   14006    13445    13480 1
   14007    13445    13481 1
   14008    13446    13447 1
   14009    13446    13482 1
   14010    13446    13483 1
   14011    13447    13448 1
   14012    13447    13484 1
   14013    13447    13485 1
   14014    13448    13449 1
   14015    13448    13486 1
   14016    13448    13487 1
   14017    13449    13450 1
   14018    13449    13488 1
   14019    13449    13489 1
   14020    13450    13451 1
   14021    13450    13490 1
   14022    13450    13491 1
   14023    13451    13452 1
   14024    13451    13492 1
   14025    13451    13493 1
   14026    13452    13453 1
   14027    13452    13459 1
   14028    13452    13494 1
   14029    13453    13454 1
   14030    13453    13495 1
   14031    13453    13496 1
   14032    13454    13455 1
   14033    13454    13497 1
   14034    13454    13498 1
   14035    13455    13456 1
   14036    13455    13499 1
   14037    13455    13500 1
   14038    13456    13457 1
   14039    13456    13501 1
   14040    13456    13502 1
   14041    13457    13458 1
   14042    13457    13503 1
   14043    13457    13504 1
   14044    13458    13505 1
   14045    13458    13506 1
   14046    13458    13507 1
   14047    13459    13460 1
   14048    13459    13508 1
   14049    13459    13509 1
   14050    13460    13461 1
   14051    13461    13462 1
   14052    13461    13510 1
   14053    13461    13511 1
   14054    13462    13463 1
   14055    13462    13469 1
   14056    13462    13512 1
   14057    13463    13464 1
   14058    13463    13513 1
   14059    13463    13514 1
   14060    13464    13465 1
   14061    13464    13515 1
   14062    13464    13516 1
   14063    13465    13466 1
   14064    13465    13517 1
   14065    13465    13518 1
   14066    13466    13467 1
   14067    13466    13519 1
   14068    13466    13520 1
   14069    13467    13468 1
   14070    13467    13521 1
   14071    13467    13522 1
   14072    13468    13523 1
   14073    13468    13524 1
   14074    13468    13525 1
   14075    13469    13470 1
   14076    13469    13526 1
   14077    13469    13527 1
   14078    13470    13471 1
   14079    13470    13528 1
   14080    13470    13529 1
   14081    13471    13472 1
   14082    13471    13530 1
   14083    13471    13531 1
   14084    13472    13473 1
   14085    13472    13532 1
   14086    13472    13533 1
   14087    13473    13474 1
   14088    13473    13534 1
   14089    13473    13535 1
   14090    13474    13475 1
   14091    13474    13536 1
   14092    13474    13537 1
   14093    13475    13476 1
   14094    13475    13538 1
   14095    13475    13539 1
   14096    13476    13540 1
   14097    13476    13541 1
   14098    13476    13542 1
   14099    13543    13544 1
   14100    13543    13550 1
   14101    13543    13582 1
   14102    13544    13545 1
   14103    13544    13548 1
   14104    13545    13546 1
   14105    13545    13549 1
   14106    13546    13547 1
   14107    13547    13548 1
   14108    13547    13558 1
   14109    13548    13554 1
   14110    13549    13550 1
   14111    13549    13553 1
   14112    13550    13551 1
   14113    13551    13552 1
   14114    13551    13555 1
   14115    13552    13553 1
   14116    13556    13557 1
   14117    13556    13564 1
   14118    13557    13558 1
   14119    13557    13565 1
   14120    13558    13559 1
   14121    13559    13560 1
   14122    13559    13563 1
   14123    13560    13561 1
   14124    13561    13562 1
   14125    13562    13563 1
   14126    13563    13564 1
   14127    13564    13674 1
   14128    13566    13567 1
   14129    13566    13599 1
   14130    13566    13600 1
   14131    13566    13601 1
   14132    13567    13568 1
   14133    13567    13602 1
   14134    13567    13603 1
   14135    13568    13569 1
   14136    13568    13604 1
   14137    13568    13605 1
   14138    13569    13570 1
   14139    13569    13606 1
   14140    13569    13607 1
   14141    13570    13571 1
   14142    13570    13608 1
   14143    13570    13609 1
   14144    13571    13572 1
   14145    13571    13610 1
   14146    13571    13611 1
   14147    13572    13573 1
   14148    13572    13612 1
   14149    13572    13613 1
   14150    13573    13574 1
   14151    13573    13614 1
   14152    13573    13615 1
   14153    13574    13575 1
   14154    13574    13581 1
   14155    13574    13616 1
   14156    13575    13576 1
   14157    13575    13617 1
   14158    13575    13618 1
   14159    13576    13577 1
   14160    13576    13619 1
   14161    13576    13620 1
   14162    13577    13578 1
   14163    13577    13621 1
   14164    13577    13622 1
   14165    13578    13579 1
   14166    13578    13623 1
   14167    13578    13624 1
   14168    13579    13580 1
   14169    13579    13625 1
   14170    13579    13626 1
   14171    13580    13627 1
   14172    13580    13628 1
   14173    13580    13629 1
   14174    13581    13582 1
   14175    13581    13630 1
   14176    13581    13631 1
   14177    13582    13583 1
   14178    13583    13584 1
   14179    13583    13632 1
   14180    13583    13633 1
   14181    13584    13585 1
   14182    13584    13591 1
   14183    13584    13634 1
   14184    13585    13586 1
   14185    13585    13635 1
   14186    13585    13636 1
   14187    13586    13587 1
   14188    13586    13637 1
   14189    13586    13638 1
   14190    13587    13588 1
   14191    13587    13639 1
   14192    13587    13640 1
   14193    13588    13589 1
   14194    13588    13641 1
   14195    13588    13642 1
   14196    13589    13590 1
   14197    13589    13643 1
   14198    13589    13644 1
   14199    13590    13645 1
   14200    13590    13646 1
   14201    13590    13647 1
   14202    13591    13592 1
   14203    13591    13648 1
   14204    13591    13649 1
   14205    13592    13593 1
   14206    13592    13650 1
   14207    13592    13651 1
   14208    13593    13594 1
   14209    13593    13652 1
   14210    13593    13653 1
   14211    13594    13595 1
   14212    13594    13654 1
   14213    13594    13655 1
   14214    13595    13596 1
   14215    13595    13656 1
   14216    13595    13657 1
   14217    13596    13597 1
   14218    13596    13658 1
   14219    13596    13659 1
   14220    13597    13598 1
   14221    13597    13660 1
   14222    13597    13661 1
   14223    13598    13662 1
   14224    13598    13663 1
   14225    13598    13664 1
   14226    13665    13666 1
   14227    13665    13672 1
   14228    13665    13704 1
   14229    13666    13667 1
   14230    13666    13670 1
   14231    13667    13668 1
   14232    13667    13671 1
   14233    13668    13669 1
   14234    13669    13670 1
   14235    13669    13680 1
   14236    13670    13676 1
   14237    13671    13672 1
   14238    13671    13675 1
   14239    13672    13673 1
   14240    13673    13674 1
   14241    13673    13677 1
   14242    13674    13675 1
   14243    13678    13679 1
   14244    13678    13686 1
   14245    13679    13680 1
   14246    13679    13687 1
   14247    13680    13681 1
   14248    13681    13682 1
   14249    13681    13685 1
   14250    13682    13683 1
   14251    13683    13684 1
   14252    13684    13685 1
   14253    13685    13686 1
   14254    13686    13796 1
   14255    13688    13689 1
   14256    13688    13721 1
   14257    13688    13722 1
   14258    13688    13723 1
   14259    13689    13690 1
   14260    13689    13724 1
   14261    13689    13725 1
   14262    13690    13691 1
   14263    13690    13726 1
   14264    13690    13727 1
   14265    13691    13692 1
   14266    13691    13728 1
   14267    13691    13729 1
   14268    13692    13693 1
   14269    13692    13730 1
   14270    13692    13731 1
   14271    13693    13694 1
   14272    13693    13732 1
   14273    13693    13733 1
   14274    13694    13695 1
   14275    13694    13734 1
   14276    13694    13735 1
   14277    13695    13696 1
   14278    13695    13736 1
   14279    13695    13737 1
   14280    13696    13697 1
   14281    13696    13703 1
   14282    13696    13738 1
   14283    13697    13698 1
   14284    13697    13739 1
   14285    13697    13740 1
   14286    13698    13699 1
   14287    13698    13741 1
   14288    13698    13742 1
   14289    13699    13700 1
   14290    13699    13743 1
   14291    13699    13744 1
   14292    13700    13701 1
   14293    13700    13745 1
   14294    13700    13746 1
   14295    13701    13702 1
   14296    13701    13747 1
   14297    13701    13748 1
   14298    13702    13749 1
   14299    13702    13750 1
   14300    13702    13751 1
   14301    13703    13704 1
   14302    13703    13752 1
   14303    13703    13753 1
   14304    13704    13705 1
   14305    13705    13706 1
   14306    13705    13754 1
   14307    13705    13755 1
   14308    13706    13707 1
   14309    13706    13713 1
   14310    13706    13756 1
   14311    13707    13708 1
   14312    13707    13757 1
   14313    13707    13758 1
   14314    13708    13709 1
   14315    13708    13759 1
   14316    13708    13760 1
   14317    13709    13710 1
   14318    13709    13761 1
   14319    13709    13762 1
   14320    13710    13711 1
   14321    13710    13763 1
   14322    13710    13764 1
   14323    13711    13712 1
   14324    13711    13765 1
   14325    13711    13766 1
   14326    13712    13767 1
   14327    13712    13768 1
   14328    13712    13769 1
   14329    13713    13714 1
   14330    13713    13770 1
   14331    13713    13771 1
   14332    13714    13715 1
   14333    13714    13772 1
   14334    13714    13773 1
   14335    13715    13716 1
   14336    13715    13774 1
   14337    13715    13775 1
   14338    13716    13717 1
   14339    13716    13776 1
   14340    13716    13777 1
   14341    13717    13718 1
   14342    13717    13778 1
   14343    13717    13779 1
   14344    13718    13719 1
   14345    13718    13780 1
   14346    13718    13781 1
   14347    13719    13720 1
   14348    13719    13782 1
   14349    13719    13783 1
   14350    13720    13784 1
   14351    13720    13785 1
   14352    13720    13786 1
   14353    13787    13788 1
   14354    13787    13794 1
   14355    13787    13826 1
   14356    13788    13789 1
   14357    13788    13792 1
   14358    13789    13790 1
   14359    13789    13793 1
   14360    13790    13791 1
   14361    13791    13792 1
   14362    13791    13802 1
   14363    13792    13798 1
   14364    13793    13794 1
   14365    13793    13797 1
   14366    13794    13795 1
   14367    13795    13796 1
   14368    13795    13799 1
   14369    13796    13797 1
   14370    13800    13801 1
   14371    13800    13808 1
   14372    13801    13802 1
   14373    13801    13809 1
   14374    13802    13803 1
   14375    13803    13804 1
   14376    13803    13807 1
   14377    13804    13805 1
   14378    13805    13806 1
   14379    13806    13807 1
   14380    13807    13808 1
   14381    13808    13918 1
   14382    13810    13811 1
   14383    13810    13843 1
   14384    13810    13844 1
   14385    13810    13845 1
   14386    13811    13812 1
   14387    13811    13846 1
   14388    13811    13847 1
   14389    13812    13813 1
   14390    13812    13848 1
   14391    13812    13849 1
   14392    13813    13814 1
   14393    13813    13850 1
   14394    13813    13851 1
   14395    13814    13815 1
   14396    13814    13852 1
   14397    13814    13853 1
   14398    13815    13816 1
   14399    13815    13854 1
   14400    13815    13855 1
   14401    13816    13817 1
   14402    13816    13856 1
   14403    13816    13857 1
   14404    13817    13818 1
   14405    13817    13858 1
   14406    13817    13859 1
   14407    13818    13819 1
   14408    13818    13825 1
   14409    13818    13860 1
   14410    13819    13820 1
   14411    13819    13861 1
   14412    13819    13862 1
   14413    13820    13821 1
   14414    13820    13863 1
   14415    13820    13864 1
   14416    13821    13822 1
   14417    13821    13865 1
   14418    13821    13866 1
   14419    13822    13823 1
   14420    13822    13867 1
   14421    13822    13868 1
   14422    13823    13824 1
   14423    13823    13869 1
   14424    13823    13870 1
   14425    13824    13871 1
   14426    13824    13872 1
   14427    13824    13873 1
   14428    13825    13826 1
   14429    13825    13874 1
   14430    13825    13875 1
   14431    13826    13827 1
   14432    13827    13828 1
   14433    13827    13876 1
   14434    13827    13877 1
   14435    13828    13829 1
   14436    13828    13835 1
   14437    13828    13878 1
   14438    13829    13830 1
   14439    13829    13879 1
   14440    13829    13880 1
   14441    13830    13831 1
   14442    13830    13881 1
   14443    13830    13882 1
   14444    13831    13832 1
   14445    13831    13883 1
   14446    13831    13884 1
   14447    13832    13833 1
   14448    13832    13885 1
   14449    13832    13886 1
   14450    13833    13834 1
   14451    13833    13887 1
   14452    13833    13888 1
   14453    13834    13889 1
   14454    13834    13890 1
   14455    13834    13891 1
   14456    13835    13836 1
   14457    13835    13892 1
   14458    13835    13893 1
   14459    13836    13837 1
   14460    13836    13894 1
   14461    13836    13895 1
   14462    13837    13838 1
   14463    13837    13896 1
   14464    13837    13897 1
   14465    13838    13839 1
   14466    13838    13898 1
   14467    13838    13899 1
   14468    13839    13840 1
   14469    13839    13900 1
   14470    13839    13901 1
   14471    13840    13841 1
   14472    13840    13902 1
   14473    13840    13903 1
   14474    13841    13842 1
   14475    13841    13904 1
   14476    13841    13905 1
   14477    13842    13906 1
   14478    13842    13907 1
   14479    13842    13908 1
   14480    13909    13910 1
   14481    13909    13916 1
   14482    13909    13948 1
   14483    13910    13911 1
   14484    13910    13914 1
   14485    13911    13912 1
   14486    13911    13915 1
   14487    13912    13913 1
   14488    13913    13914 1
   14489    13913    13924 1
   14490    13914    13920 1
   14491    13915    13916 1
   14492    13915    13919 1
   14493    13916    13917 1
   14494    13917    13918 1
   14495    13917    13921 1
   14496    13918    13919 1
   14497    13922    13923 1
   14498    13922    13930 1
   14499    13923    13924 1
   14500    13923    13931 1
   14501    13924    13925 1
   14502    13925    13926 1
   14503    13925    13929 1
   14504    13926    13927 1
   14505    13927    13928 1
   14506    13928    13929 1
   14507    13929    13930 1
   14508    13930    14040 1
   14509    13932    13933 1
   14510    13932    13965 1
   14511    13932    13966 1
   14512    13932    13967 1
   14513    13933    13934 1
   14514    13933    13968 1
   14515    13933    13969 1
   14516    13934    13935 1
   14517    13934    13970 1
   14518    13934    13971 1
   14519    13935    13936 1
   14520    13935    13972 1
   14521    13935    13973 1
   14522    13936    13937 1
   14523    13936    13974 1
   14524    13936    13975 1
   14525    13937    13938 1
   14526    13937    13976 1
   14527    13937    13977 1
   14528    13938    13939 1
   14529    13938    13978 1
   14530    13938    13979 1
   14531    13939    13940 1
   14532    13939    13980 1
   14533    13939    13981 1
   14534    13940    13941 1
   14535    13940    13947 1
   14536    13940    13982 1
   14537    13941    13942 1
   14538    13941    13983 1
   14539    13941    13984 1
   14540    13942    13943 1
   14541    13942    13985 1
   14542    13942    13986 1
   14543    13943    13944 1
   14544    13943    13987 1
   14545    13943    13988 1
   14546    13944    13945 1
   14547    13944    13989 1
   14548    13944    13990 1
   14549    13945    13946 1
   14550    13945    13991 1
   14551    13945    13992 1
   14552    13946    13993 1
   14553    13946    13994 1
   14554    13946    13995 1
   14555    13947    13948 1
   14556    13947    13996 1
   14557    13947    13997 1
   14558    13948    13949 1
   14559    13949    13950 1
   14560    13949    13998 1
   14561    13949    13999 1
   14562    13950    13951 1
   14563    13950    13957 1
   14564    13950    14000 1
   14565    13951    13952 1
   14566    13951    14001 1
   14567    13951    14002 1
   14568    13952    13953 1
   14569    13952    14003 1
   14570    13952    14004 1
   14571    13953    13954 1
   14572    13953    14005 1
   14573    13953    14006 1
   14574    13954    13955 1
   14575    13954    14007 1
   14576    13954    14008 1
   14577    13955    13956 1
   14578    13955    14009 1
   14579    13955    14010 1
   14580    13956    14011 1
   14581    13956    14012 1
   14582    13956    14013 1
   14583    13957    13958 1
   14584    13957    14014 1
   14585    13957    14015 1
   14586    13958    13959 1
   14587    13958    14016 1
   14588    13958    14017 1
   14589    13959    13960 1
   14590    13959    14018 1
   14591    13959    14019 1
   14592    13960    13961 1
   14593    13960    14020 1
   14594    13960    14021 1
   14595    13961    13962 1
   14596    13961    14022 1
   14597    13961    14023 1
   14598    13962    13963 1
   14599    13962    14024 1
   14600    13962    14025 1
   14601    13963    13964 1
   14602    13963    14026 1
   14603    13963    14027 1
   14604    13964    14028 1
   14605    13964    14029 1
   14606    13964    14030 1
   14607    14031    14032 1
   14608    14031    14038 1
   14609    14031    14070 1
   14610    14032    14033 1
   14611    14032    14036 1
   14612    14033    14034 1
   14613    14033    14037 1
   14614    14034    14035 1
   14615    14035    14036 1
   14616    14035    14046 1
   14617    14036    14042 1
   14618    14037    14038 1
   14619    14037    14041 1
   14620    14038    14039 1
   14621    14039    14040 1
   14622    14039    14043 1
   14623    14040    14041 1
   14624    14044    14045 1
   14625    14044    14052 1
   14626    14045    14046 1
   14627    14045    14053 1
   14628    14046    14047 1
   14629    14047    14048 1
   14630    14047    14051 1
   14631    14048    14049 1
   14632    14049    14050 1
   14633    14050    14051 1
   14634    14051    14052 1
   14635    14052    14162 1
   14636    14054    14055 1
   14637    14054    14087 1
   14638    14054    14088 1
   14639    14054    14089 1
   14640    14055    14056 1
   14641    14055    14090 1
   14642    14055    14091 1
   14643    14056    14057 1
   14644    14056    14092 1
   14645    14056    14093 1
   14646    14057    14058 1
   14647    14057    14094 1
   14648    14057    14095 1
   14649    14058    14059 1
   14650    14058    14096 1
   14651    14058    14097 1
   14652    14059    14060 1
   14653    14059    14098 1
   14654    14059    14099 1
   14655    14060    14061 1
   14656    14060    14100 1
   14657    14060    14101 1
   14658    14061    14062 1
   14659    14061    14102 1
   14660    14061    14103 1
   14661    14062    14063 1
   14662    14062    14069 1
   14663    14062    14104 1
   14664    14063    14064 1
   14665    14063    14105 1
   14666    14063    14106 1
   14667    14064    14065 1
   14668    14064    14107 1
   14669    14064    14108 1
   14670    14065    14066 1
   14671    14065    14109 1
   14672    14065    14110 1
   14673    14066    14067 1
   14674    14066    14111 1
   14675    14066    14112 1
   14676    14067    14068 1
   14677    14067    14113 1
   14678    14067    14114 1
   14679    14068    14115 1
   14680    14068    14116 1
   14681    14068    14117 1
   14682    14069    14070 1
   14683    14069    14118 1
   14684    14069    14119 1
   14685    14070    14071 1
   14686    14071    14072 1
   14687    14071    14120 1
   14688    14071    14121 1
   14689    14072    14073 1
   14690    14072    14079 1
   14691    14072    14122 1
   14692    14073    14074 1
   14693    14073    14123 1
   14694    14073    14124 1
   14695    14074    14075 1
   14696    14074    14125 1
   14697    14074    14126 1
   14698    14075    14076 1
   14699    14075    14127 1
   14700    14075    14128 1
   14701    14076    14077 1
   14702    14076    14129 1
   14703    14076    14130 1
   14704    14077    14078 1
   14705    14077    14131 1
   14706    14077    14132 1
   14707    14078    14133 1
   14708    14078    14134 1
   14709    14078    14135 1
   14710    14079    14080 1
   14711    14079    14136 1
   14712    14079    14137 1
   14713    14080    14081 1
   14714    14080    14138 1
   14715    14080    14139 1
   14716    14081    14082 1
   14717    14081    14140 1
   14718    14081    14141 1
   14719    14082    14083 1
   14720    14082    14142 1
   14721    14082    14143 1
   14722    14083    14084 1
   14723    14083    14144 1
   14724    14083    14145 1
   14725    14084    14085 1
   14726    14084    14146 1
   14727    14084    14147 1
   14728    14085    14086 1
   14729    14085    14148 1
   14730    14085    14149 1
   14731    14086    14150 1
   14732    14086    14151 1
   14733    14086    14152 1
   14734    14153    14154 1
   14735    14153    14160 1
   14736    14153    14192 1
   14737    14154    14155 1
   14738    14154    14158 1
   14739    14155    14156 1
   14740    14155    14159 1
   14741    14156    14157 1
   14742    14157    14158 1
   14743    14157    14168 1
   14744    14158    14164 1
   14745    14159    14160 1
   14746    14159    14163 1
   14747    14160    14161 1
   14748    14161    14162 1
   14749    14161    14165 1
   14750    14162    14163 1
   14751    14166    14167 1
   14752    14166    14174 1
   14753    14167    14168 1
   14754    14167    14175 1
   14755    14168    14169 1
   14756    14169    14170 1
   14757    14169    14173 1
   14758    14170    14171 1
   14759    14171    14172 1
   14760    14172    14173 1
   14761    14173    14174 1
   14762    14174    14284 1
   14763    14176    14177 1
   14764    14176    14209 1
   14765    14176    14210 1
   14766    14176    14211 1
   14767    14177    14178 1
   14768    14177    14212 1
   14769    14177    14213 1
   14770    14178    14179 1
   14771    14178    14214 1
   14772    14178    14215 1
   14773    14179    14180 1
   14774    14179    14216 1
   14775    14179    14217 1
   14776    14180    14181 1
   14777    14180    14218 1
   14778    14180    14219 1
   14779    14181    14182 1
   14780    14181    14220 1
   14781    14181    14221 1
   14782    14182    14183 1
   14783    14182    14222 1
   14784    14182    14223 1
   14785    14183    14184 1
   14786    14183    14224 1
   14787    14183    14225 1
   14788    14184    14185 1
   14789    14184    14191 1
   14790    14184    14226 1
   14791    14185    14186 1
   14792    14185    14227 1
   14793    14185    14228 1
   14794    14186    14187 1
   14795    14186    14229 1
   14796    14186    14230 1
   14797    14187    14188 1
   14798    14187    14231 1
   14799    14187    14232 1
   14800    14188    14189 1
   14801    14188    14233 1
   14802    14188    14234 1
   14803    14189    14190 1
   14804    14189    14235 1
   14805    14189    14236 1
   14806    14190    14237 1
   14807    14190    14238 1
   14808    14190    14239 1
   14809    14191    14192 1
   14810    14191    14240 1
   14811    14191    14241 1
   14812    14192    14193 1
   14813    14193    14194 1
   14814    14193    14242 1
   14815    14193    14243 1
   14816    14194    14195 1
   14817    14194    14201 1
   14818    14194    14244 1
   14819    14195    14196 1
   14820    14195    14245 1
   14821    14195    14246 1
   14822    14196    14197 1
   14823    14196    14247 1
   14824    14196    14248 1
   14825    14197    14198 1
   14826    14197    14249 1
   14827    14197    14250 1
   14828    14198    14199 1
   14829    14198    14251 1
   14830    14198    14252 1
   14831    14199    14200 1
   14832    14199    14253 1
   14833    14199    14254 1
   14834    14200    14255 1
   14835    14200    14256 1
   14836    14200    14257 1
   14837    14201    14202 1
   14838    14201    14258 1
   14839    14201    14259 1
   14840    14202    14203 1
   14841    14202    14260 1
   14842    14202    14261 1
   14843    14203    14204 1
   14844    14203    14262 1
   14845    14203    14263 1
   14846    14204    14205 1
   14847    14204    14264 1
   14848    14204    14265 1
   14849    14205    14206 1
   14850    14205    14266 1
   14851    14205    14267 1
   14852    14206    14207 1
   14853    14206    14268 1
   14854    14206    14269 1
   14855    14207    14208 1
   14856    14207    14270 1
   14857    14207    14271 1
   14858    14208    14272 1
   14859    14208    14273 1
   14860    14208    14274 1
   14861    14275    14276 1
   14862    14275    14282 1
   14863    14275    14314 1
   14864    14276    14277 1
   14865    14276    14280 1
   14866    14277    14278 1
   14867    14277    14281 1
   14868    14278    14279 1
   14869    14279    14280 1
   14870    14279    14290 1
   14871    14280    14286 1
   14872    14281    14282 1
   14873    14281    14285 1
   14874    14282    14283 1
   14875    14283    14284 1
   14876    14283    14287 1
   14877    14284    14285 1
   14878    14288    14289 1
   14879    14288    14296 1
   14880    14289    14290 1
   14881    14289    14297 1
   14882    14290    14291 1
   14883    14291    14292 1
   14884    14291    14295 1
   14885    14292    14293 1
   14886    14293    14294 1
   14887    14294    14295 1
   14888    14295    14296 1
   14889    14296    14406 1
   14890    14298    14299 1
   14891    14298    14331 1
   14892    14298    14332 1
   14893    14298    14333 1
   14894    14299    14300 1
   14895    14299    14334 1
   14896    14299    14335 1
   14897    14300    14301 1
   14898    14300    14336 1
   14899    14300    14337 1
   14900    14301    14302 1
   14901    14301    14338 1
   14902    14301    14339 1
   14903    14302    14303 1
   14904    14302    14340 1
   14905    14302    14341 1
   14906    14303    14304 1
   14907    14303    14342 1
   14908    14303    14343 1
   14909    14304    14305 1
   14910    14304    14344 1
   14911    14304    14345 1
   14912    14305    14306 1
   14913    14305    14346 1
   14914    14305    14347 1
   14915    14306    14307 1
   14916    14306    14313 1
   14917    14306    14348 1
   14918    14307    14308 1
   14919    14307    14349 1
   14920    14307    14350 1
   14921    14308    14309 1
   14922    14308    14351 1
   14923    14308    14352 1
   14924    14309    14310 1
   14925    14309    14353 1
   14926    14309    14354 1
   14927    14310    14311 1
   14928    14310    14355 1
   14929    14310    14356 1
   14930    14311    14312 1
   14931    14311    14357 1
   14932    14311    14358 1
   14933    14312    14359 1
   14934    14312    14360 1
   14935    14312    14361 1
   14936    14313    14314 1
   14937    14313    14362 1
   14938    14313    14363 1
   14939    14314    14315 1
   14940    14315    14316 1
   14941    14315    14364 1
   14942    14315    14365 1
   14943    14316    14317 1
   14944    14316    14323 1
   14945    14316    14366 1
   14946    14317    14318 1
   14947    14317    14367 1
   14948    14317    14368 1
   14949    14318    14319 1
   14950    14318    14369 1
   14951    14318    14370 1
   14952    14319    14320 1
   14953    14319    14371 1
   14954    14319    14372 1
   14955    14320    14321 1
   14956    14320    14373 1
   14957    14320    14374 1
   14958    14321    14322 1
   14959    14321    14375 1
   14960    14321    14376 1
   14961    14322    14377 1
   14962    14322    14378 1
   14963    14322    14379 1
   14964    14323    14324 1
   14965    14323    14380 1
   14966    14323    14381 1
   14967    14324    14325 1
   14968    14324    14382 1
   14969    14324    14383 1
   14970    14325    14326 1
   14971    14325    14384 1
   14972    14325    14385 1
   14973    14326    14327 1
   14974    14326    14386 1
   14975    14326    14387 1
   14976    14327    14328 1
   14977    14327    14388 1
   14978    14327    14389 1
   14979    14328    14329 1
   14980    14328    14390 1
   14981    14328    14391 1
   14982    14329    14330 1
   14983    14329    14392 1
   14984    14329    14393 1
   14985    14330    14394 1
   14986    14330    14395 1
   14987    14330    14396 1
   14988    14397    14398 1
   14989    14397    14404 1
   14990    14397    14436 1
   14991    14398    14399 1
   14992    14398    14402 1
   14993    14399    14400 1
   14994    14399    14403 1
   14995    14400    14401 1
   14996    14401    14402 1
   14997    14401    14412 1
   14998    14402    14408 1
   14999    14403    14404 1
   15000    14403    14407 1
   15001    14404    14405 1
   15002    14405    14406 1
   15003    14405    14409 1
   15004    14406    14407 1
   15005    14410    14411 1
   15006    14410    14418 1
   15007    14411    14412 1
   15008    14411    14419 1
   15009    14412    14413 1
   15010    14413    14414 1
   15011    14413    14417 1
   15012    14414    14415 1
   15013    14415    14416 1
   15014    14416    14417 1
   15015    14417    14418 1
   15016    14418    14528 1
   15017    14420    14421 1
   15018    14420    14453 1
   15019    14420    14454 1
   15020    14420    14455 1
   15021    14421    14422 1
   15022    14421    14456 1
   15023    14421    14457 1
   15024    14422    14423 1
   15025    14422    14458 1
   15026    14422    14459 1
   15027    14423    14424 1
   15028    14423    14460 1
   15029    14423    14461 1
   15030    14424    14425 1
   15031    14424    14462 1
   15032    14424    14463 1
   15033    14425    14426 1
   15034    14425    14464 1
   15035    14425    14465 1
   15036    14426    14427 1
   15037    14426    14466 1
   15038    14426    14467 1
   15039    14427    14428 1
   15040    14427    14468 1
   15041    14427    14469 1
   15042    14428    14429 1
   15043    14428    14435 1
   15044    14428    14470 1
   15045    14429    14430 1
   15046    14429    14471 1
   15047    14429    14472 1
   15048    14430    14431 1
   15049    14430    14473 1
   15050    14430    14474 1
   15051    14431    14432 1
   15052    14431    14475 1
   15053    14431    14476 1
   15054    14432    14433 1
   15055    14432    14477 1
   15056    14432    14478 1
   15057    14433    14434 1
   15058    14433    14479 1
   15059    14433    14480 1
   15060    14434    14481 1
   15061    14434    14482 1
   15062    14434    14483 1
   15063    14435    14436 1
   15064    14435    14484 1
   15065    14435    14485 1
   15066    14436    14437 1
   15067    14437    14438 1
   15068    14437    14486 1
   15069    14437    14487 1
   15070    14438    14439 1
   15071    14438    14445 1
   15072    14438    14488 1
   15073    14439    14440 1
   15074    14439    14489 1
   15075    14439    14490 1
   15076    14440    14441 1
   15077    14440    14491 1
   15078    14440    14492 1
   15079    14441    14442 1
   15080    14441    14493 1
   15081    14441    14494 1
   15082    14442    14443 1
   15083    14442    14495 1
   15084    14442    14496 1
   15085    14443    14444 1
   15086    14443    14497 1
   15087    14443    14498 1
   15088    14444    14499 1
   15089    14444    14500 1
   15090    14444    14501 1
   15091    14445    14446 1
   15092    14445    14502 1
   15093    14445    14503 1
   15094    14446    14447 1
   15095    14446    14504 1
   15096    14446    14505 1
   15097    14447    14448 1
   15098    14447    14506 1
   15099    14447    14507 1
   15100    14448    14449 1
   15101    14448    14508 1
   15102    14448    14509 1
   15103    14449    14450 1
   15104    14449    14510 1
   15105    14449    14511 1
   15106    14450    14451 1
   15107    14450    14512 1
   15108    14450    14513 1
   15109    14451    14452 1
   15110    14451    14514 1
   15111    14451    14515 1
   15112    14452    14516 1
   15113    14452    14517 1
   15114    14452    14518 1
   15115    14519    14520 1
   15116    14519    14526 1
   15117    14519    14558 1
   15118    14520    14521 1
   15119    14520    14524 1
   15120    14521    14522 1
   15121    14521    14525 1
   15122    14522    14523 1
   15123    14523    14524 1
   15124    14523    14534 1
   15125    14524    14530 1
   15126    14525    14526 1
   15127    14525    14529 1
   15128    14526    14527 1
   15129    14527    14528 1
   15130    14527    14531 1
   15131    14528    14529 1
   15132    14532    14533 1
   15133    14532    14540 1
   15134    14533    14534 1
   15135    14533    14541 1
   15136    14534    14535 1
   15137    14535    14536 1
   15138    14535    14539 1
   15139    14536    14537 1
   15140    14537    14538 1
   15141    14538    14539 1
   15142    14539    14540 1
   15143    14540    14650 1
   15144    14542    14543 1
   15145    14542    14575 1
   15146    14542    14576 1
   15147    14542    14577 1
   15148    14543    14544 1
   15149    14543    14578 1
   15150    14543    14579 1
   15151    14544    14545 1
   15152    14544    14580 1
   15153    14544    14581 1
   15154    14545    14546 1
   15155    14545    14582 1
   15156    14545    14583 1
   15157    14546    14547 1
   15158    14546    14584 1
   15159    14546    14585 1
   15160    14547    14548 1
   15161    14547    14586 1
   15162    14547    14587 1
   15163    14548    14549 1
   15164    14548    14588 1
   15165    14548    14589 1
   15166    14549    14550 1
   15167    14549    14590 1
   15168    14549    14591 1
   15169    14550    14551 1
   15170    14550    14557 1
   15171    14550    14592 1
   15172    14551    14552 1
   15173    14551    14593 1
   15174    14551    14594 1
   15175    14552    14553 1
   15176    14552    14595 1
   15177    14552    14596 1
   15178    14553    14554 1
   15179    14553    14597 1
   15180    14553    14598 1
   15181    14554    14555 1
   15182    14554    14599 1
   15183    14554    14600 1
   15184    14555    14556 1
   15185    14555    14601 1
   15186    14555    14602 1
   15187    14556    14603 1
   15188    14556    14604 1
   15189    14556    14605 1
   15190    14557    14558 1
   15191    14557    14606 1
   15192    14557    14607 1
   15193    14558    14559 1
   15194    14559    14560 1
   15195    14559    14608 1
   15196    14559    14609 1
   15197    14560    14561 1
   15198    14560    14567 1
   15199    14560    14610 1
   15200    14561    14562 1
   15201    14561    14611 1
   15202    14561    14612 1
   15203    14562    14563 1
   15204    14562    14613 1
   15205    14562    14614 1
   15206    14563    14564 1
   15207    14563    14615 1
   15208    14563    14616 1
   15209    14564    14565 1
   15210    14564    14617 1
   15211    14564    14618 1
   15212    14565    14566 1
   15213    14565    14619 1
   15214    14565    14620 1
   15215    14566    14621 1
   15216    14566    14622 1
   15217    14566    14623 1
   15218    14567    14568 1
   15219    14567    14624 1
   15220    14567    14625 1
   15221    14568    14569 1
   15222    14568    14626 1
   15223    14568    14627 1
   15224    14569    14570 1
   15225    14569    14628 1
   15226    14569    14629 1
   15227    14570    14571 1
   15228    14570    14630 1
   15229    14570    14631 1
   15230    14571    14572 1
   15231    14571    14632 1
   15232    14571    14633 1
   15233    14572    14573 1
   15234    14572    14634 1
   15235    14572    14635 1
   15236    14573    14574 1
   15237    14573    14636 1
   15238    14573    14637 1
   15239    14574    14638 1
   15240    14574    14639 1
   15241    14574    14640 1
   15242    14641    14642 1
   15243    14641    14648 1
   15244    14641    14680 1
   15245    14642    14643 1
   15246    14642    14646 1
   15247    14643    14644 1
   15248    14643    14647 1
   15249    14644    14645 1
   15250    14645    14646 1
   15251    14645    14656 1
   15252    14646    14652 1
   15253    14647    14648 1
   15254    14647    14651 1
   15255    14648    14649 1
   15256    14649    14650 1
   15257    14649    14653 1
   15258    14650    14651 1
   15259    14654    14655 1
   15260    14654    14662 1
   15261    14655    14656 1
   15262    14655    14663 1
   15263    14656    14657 1
   15264    14657    14658 1
   15265    14657    14661 1
   15266    14658    14659 1
   15267    14659    14660 1
   15268    14660    14661 1
   15269    14661    14662 1
   15270    14662    14772 1
   15271    14664    14665 1
   15272    14664    14697 1
   15273    14664    14698 1
   15274    14664    14699 1
   15275    14665    14666 1
   15276    14665    14700 1
   15277    14665    14701 1
   15278    14666    14667 1
   15279    14666    14702 1
   15280    14666    14703 1
   15281    14667    14668 1
   15282    14667    14704 1
   15283    14667    14705 1
   15284    14668    14669 1
   15285    14668    14706 1
   15286    14668    14707 1
   15287    14669    14670 1
   15288    14669    14708 1
   15289    14669    14709 1
   15290    14670    14671 1
   15291    14670    14710 1
   15292    14670    14711 1
   15293    14671    14672 1
   15294    14671    14712 1
   15295    14671    14713 1
   15296    14672    14673 1
   15297    14672    14679 1
   15298    14672    14714 1
   15299    14673    14674 1
   15300    14673    14715 1
   15301    14673    14716 1
   15302    14674    14675 1
   15303    14674    14717 1
   15304    14674    14718 1
   15305    14675    14676 1
   15306    14675    14719 1
   15307    14675    14720 1
   15308    14676    14677 1
   15309    14676    14721 1
   15310    14676    14722 1
   15311    14677    14678 1
   15312    14677    14723 1
   15313    14677    14724 1
   15314    14678    14725 1
   15315    14678    14726 1
   15316    14678    14727 1
   15317    14679    14680 1
   15318    14679    14728 1
   15319    14679    14729 1
   15320    14680    14681 1
   15321    14681    14682 1
   15322    14681    14730 1
   15323    14681    14731 1
   15324    14682    14683 1
   15325    14682    14689 1
   15326    14682    14732 1
   15327    14683    14684 1
   15328    14683    14733 1
   15329    14683    14734 1
   15330    14684    14685 1
   15331    14684    14735 1
   15332    14684    14736 1
   15333    14685    14686 1
   15334    14685    14737 1
   15335    14685    14738 1
   15336    14686    14687 1
   15337    14686    14739 1
   15338    14686    14740 1
   15339    14687    14688 1
   15340    14687    14741 1
   15341    14687    14742 1
   15342    14688    14743 1
   15343    14688    14744 1
   15344    14688    14745 1
   15345    14689    14690 1
   15346    14689    14746 1
   15347    14689    14747 1
   15348    14690    14691 1
   15349    14690    14748 1
   15350    14690    14749 1
   15351    14691    14692 1
   15352    14691    14750 1
   15353    14691    14751 1
   15354    14692    14693 1
   15355    14692    14752 1
   15356    14692    14753 1
   15357    14693    14694 1
   15358    14693    14754 1
   15359    14693    14755 1
   15360    14694    14695 1
   15361    14694    14756 1
   15362    14694    14757 1
   15363    14695    14696 1
   15364    14695    14758 1
   15365    14695    14759 1
   15366    14696    14760 1
   15367    14696    14761 1
   15368    14696    14762 1
   15369    14763    14764 1
   15370    14763    14770 1
   15371    14763    14802 1
   15372    14764    14765 1
   15373    14764    14768 1
   15374    14765    14766 1
   15375    14765    14769 1
   15376    14766    14767 1
   15377    14767    14768 1
   15378    14767    14778 1
   15379    14768    14774 1
   15380    14769    14770 1
   15381    14769    14773 1
   15382    14770    14771 1
   15383    14771    14772 1
   15384    14771    14775 1
   15385    14772    14773 1
   15386    14776    14777 1
   15387    14776    14784 1
   15388    14777    14778 1
   15389    14777    14785 1
   15390    14778    14779 1
   15391    14779    14780 1
   15392    14779    14783 1
   15393    14780    14781 1
   15394    14781    14782 1
   15395    14782    14783 1
   15396    14783    14784 1
   15397    14784    14894 1
   15398    14786    14787 1
   15399    14786    14819 1
   15400    14786    14820 1
   15401    14786    14821 1
   15402    14787    14788 1
   15403    14787    14822 1
   15404    14787    14823 1
   15405    14788    14789 1
   15406    14788    14824 1
   15407    14788    14825 1
   15408    14789    14790 1
   15409    14789    14826 1
   15410    14789    14827 1
   15411    14790    14791 1
   15412    14790    14828 1
   15413    14790    14829 1
   15414    14791    14792 1
   15415    14791    14830 1
   15416    14791    14831 1
   15417    14792    14793 1
   15418    14792    14832 1
   15419    14792    14833 1
   15420    14793    14794 1
   15421    14793    14834 1
   15422    14793    14835 1
   15423    14794    14795 1
   15424    14794    14801 1
   15425    14794    14836 1
   15426    14795    14796 1
   15427    14795    14837 1
   15428    14795    14838 1
   15429    14796    14797 1
   15430    14796    14839 1
   15431    14796    14840 1
   15432    14797    14798 1
   15433    14797    14841 1
   15434    14797    14842 1
   15435    14798    14799 1
   15436    14798    14843 1
   15437    14798    14844 1
   15438    14799    14800 1
   15439    14799    14845 1
   15440    14799    14846 1
   15441    14800    14847 1
   15442    14800    14848 1
   15443    14800    14849 1
   15444    14801    14802 1
   15445    14801    14850 1
   15446    14801    14851 1
   15447    14802    14803 1
   15448    14803    14804 1
   15449    14803    14852 1
   15450    14803    14853 1
   15451    14804    14805 1
   15452    14804    14811 1
   15453    14804    14854 1
   15454    14805    14806 1
   15455    14805    14855 1
   15456    14805    14856 1
   15457    14806    14807 1
   15458    14806    14857 1
   15459    14806    14858 1
   15460    14807    14808 1
   15461    14807    14859 1
   15462    14807    14860 1
   15463    14808    14809 1
   15464    14808    14861 1
   15465    14808    14862 1
   15466    14809    14810 1
   15467    14809    14863 1
   15468    14809    14864 1
   15469    14810    14865 1
   15470    14810    14866 1
   15471    14810    14867 1
   15472    14811    14812 1
   15473    14811    14868 1
   15474    14811    14869 1
   15475    14812    14813 1
   15476    14812    14870 1
   15477    14812    14871 1
   15478    14813    14814 1
   15479    14813    14872 1
   15480    14813    14873 1
   15481    14814    14815 1
   15482    14814    14874 1
   15483    14814    14875 1
   15484    14815    14816 1
   15485    14815    14876 1
   15486    14815    14877 1
   15487    14816    14817 1
   15488    14816    14878 1
   15489    14816    14879 1
   15490    14817    14818 1
   15491    14817    14880 1
   15492    14817    14881 1
   15493    14818    14882 1
   15494    14818    14883 1
   15495    14818    14884 1
   15496    14885    14886 1
   15497    14885    14892 1
   15498    14885    14924 1
   15499    14886    14887 1
   15500    14886    14890 1
   15501    14887    14888 1
   15502    14887    14891 1
   15503    14888    14889 1
   15504    14889    14890 1
   15505    14889    14900 1
   15506    14890    14896 1
   15507    14891    14892 1
   15508    14891    14895 1
   15509    14892    14893 1
   15510    14893    14894 1
   15511    14893    14897 1
   15512    14894    14895 1
   15513    14898    14899 1
   15514    14898    14906 1
   15515    14899    14900 1
   15516    14899    14907 1
   15517    14900    14901 1
   15518    14901    14902 1
   15519    14901    14905 1
   15520    14902    14903 1
   15521    14903    14904 1
   15522    14904    14905 1
   15523    14905    14906 1
   15524    14906    15016 1
   15525    14908    14909 1
   15526    14908    14941 1
   15527    14908    14942 1
   15528    14908    14943 1
   15529    14909    14910 1
   15530    14909    14944 1
   15531    14909    14945 1
   15532    14910    14911 1
   15533    14910    14946 1
   15534    14910    14947 1
   15535    14911    14912 1
   15536    14911    14948 1
   15537    14911    14949 1
   15538    14912    14913 1
   15539    14912    14950 1
   15540    14912    14951 1
   15541    14913    14914 1
   15542    14913    14952 1
   15543    14913    14953 1
   15544    14914    14915 1
   15545    14914    14954 1
   15546    14914    14955 1
   15547    14915    14916 1
   15548    14915    14956 1
   15549    14915    14957 1
   15550    14916    14917 1
   15551    14916    14923 1
   15552    14916    14958 1
   15553    14917    14918 1
   15554    14917    14959 1
   15555    14917    14960 1
   15556    14918    14919 1
   15557    14918    14961 1
   15558    14918    14962 1
   15559    14919    14920 1
   15560    14919    14963 1
   15561    14919    14964 1
   15562    14920    14921 1
   15563    14920    14965 1
   15564    14920    14966 1
   15565    14921    14922 1
   15566    14921    14967 1
   15567    14921    14968 1
   15568    14922    14969 1
   15569    14922    14970 1
   15570    14922    14971 1
   15571    14923    14924 1
   15572    14923    14972 1
   15573    14923    14973 1
   15574    14924    14925 1
   15575    14925    14926 1
   15576    14925    14974 1
   15577    14925    14975 1
   15578    14926    14927 1
   15579    14926    14933 1
   15580    14926    14976 1
   15581    14927    14928 1
   15582    14927    14977 1
   15583    14927    14978 1
   15584    14928    14929 1
   15585    14928    14979 1
   15586    14928    14980 1
   15587    14929    14930 1
   15588    14929    14981 1
   15589    14929    14982 1
   15590    14930    14931 1
   15591    14930    14983 1
   15592    14930    14984 1
   15593    14931    14932 1
   15594    14931    14985 1
   15595    14931    14986 1
   15596    14932    14987 1
   15597    14932    14988 1
   15598    14932    14989 1
   15599    14933    14934 1
   15600    14933    14990 1
   15601    14933    14991 1
   15602    14934    14935 1
   15603    14934    14992 1
   15604    14934    14993 1
   15605    14935    14936 1
   15606    14935    14994 1
   15607    14935    14995 1
   15608    14936    14937 1
   15609    14936    14996 1
   15610    14936    14997 1
   15611    14937    14938 1
   15612    14937    14998 1
   15613    14937    14999 1
   15614    14938    14939 1
   15615    14938    15000 1
   15616    14938    15001 1
   15617    14939    14940 1
   15618    14939    15002 1
   15619    14939    15003 1
   15620    14940    15004 1
   15621    14940    15005 1
   15622    14940    15006 1
   15623    15007    15008 1
   15624    15007    15014 1
   15625    15007    15046 1
   15626    15008    15009 1
   15627    15008    15012 1
   15628    15009    15010 1
   15629    15009    15013 1
   15630    15010    15011 1
   15631    15011    15012 1
   15632    15011    15022 1
   15633    15012    15018 1
   15634    15013    15014 1
   15635    15013    15017 1
   15636    15014    15015 1
   15637    15015    15016 1
   15638    15015    15019 1
   15639    15016    15017 1
   15640    15020    15021 1
   15641    15020    15028 1
   15642    15021    15022 1
   15643    15021    15029 1
   15644    15022    15023 1
   15645    15023    15024 1
   15646    15023    15027 1
   15647    15024    15025 1
   15648    15025    15026 1
   15649    15026    15027 1
   15650    15027    15028 1
   15651    15028    15138 1
   15652    15030    15031 1
   15653    15030    15063 1
   15654    15030    15064 1
   15655    15030    15065 1
   15656    15031    15032 1
   15657    15031    15066 1
   15658    15031    15067 1
   15659    15032    15033 1
   15660    15032    15068 1
   15661    15032    15069 1
   15662    15033    15034 1
   15663    15033    15070 1
   15664    15033    15071 1
   15665    15034    15035 1
   15666    15034    15072 1
   15667    15034    15073 1
   15668    15035    15036 1
   15669    15035    15074 1
   15670    15035    15075 1
   15671    15036    15037 1
   15672    15036    15076 1
   15673    15036    15077 1
   15674    15037    15038 1
   15675    15037    15078 1
   15676    15037    15079 1
   15677    15038    15039 1
   15678    15038    15045 1
   15679    15038    15080 1
   15680    15039    15040 1
   15681    15039    15081 1
   15682    15039    15082 1
   15683    15040    15041 1
   15684    15040    15083 1
   15685    15040    15084 1
   15686    15041    15042 1
   15687    15041    15085 1
   15688    15041    15086 1
   15689    15042    15043 1
   15690    15042    15087 1
   15691    15042    15088 1
   15692    15043    15044 1
   15693    15043    15089 1
   15694    15043    15090 1
   15695    15044    15091 1
   15696    15044    15092 1
   15697    15044    15093 1
   15698    15045    15046 1
   15699    15045    15094 1
   15700    15045    15095 1
   15701    15046    15047 1
   15702    15047    15048 1
   15703    15047    15096 1
   15704    15047    15097 1
   15705    15048    15049 1
   15706    15048    15055 1
   15707    15048    15098 1
   15708    15049    15050 1
   15709    15049    15099 1
   15710    15049    15100 1
   15711    15050    15051 1
   15712    15050    15101 1
   15713    15050    15102 1
   15714    15051    15052 1
   15715    15051    15103 1
   15716    15051    15104 1
   15717    15052    15053 1
   15718    15052    15105 1
   15719    15052    15106 1
   15720    15053    15054 1
   15721    15053    15107 1
   15722    15053    15108 1
   15723    15054    15109 1
   15724    15054    15110 1
   15725    15054    15111 1
   15726    15055    15056 1
   15727    15055    15112 1
   15728    15055    15113 1
   15729    15056    15057 1
   15730    15056    15114 1
   15731    15056    15115 1
   15732    15057    15058 1
   15733    15057    15116 1
   15734    15057    15117 1
   15735    15058    15059 1
   15736    15058    15118 1
   15737    15058    15119 1
   15738    15059    15060 1
   15739    15059    15120 1
   15740    15059    15121 1
   15741    15060    15061 1
   15742    15060    15122 1
   15743    15060    15123 1
   15744    15061    15062 1
   15745    15061    15124 1
   15746    15061    15125 1
   15747    15062    15126 1
   15748    15062    15127 1
   15749    15062    15128 1
   15750    15129    15130 1
   15751    15129    15136 1
   15752    15129    15168 1
   15753    15130    15131 1
   15754    15130    15134 1
   15755    15131    15132 1
   15756    15131    15135 1
   15757    15132    15133 1
   15758    15133    15134 1
   15759    15133    15144 1
   15760    15134    15140 1
   15761    15135    15136 1
   15762    15135    15139 1
   15763    15136    15137 1
   15764    15137    15138 1
   15765    15137    15141 1
   15766    15138    15139 1
   15767    15142    15143 1
   15768    15142    15150 1
   15769    15143    15144 1
   15770    15143    15151 1
   15771    15144    15145 1
   15772    15145    15146 1
   15773    15145    15149 1
   15774    15146    15147 1
   15775    15147    15148 1
   15776    15148    15149 1
   15777    15149    15150 1
   15778    15150    15260 1
   15779    15152    15153 1
   15780    15152    15185 1
   15781    15152    15186 1
   15782    15152    15187 1
   15783    15153    15154 1
   15784    15153    15188 1
   15785    15153    15189 1
   15786    15154    15155 1
   15787    15154    15190 1
   15788    15154    15191 1
   15789    15155    15156 1
   15790    15155    15192 1
   15791    15155    15193 1
   15792    15156    15157 1
   15793    15156    15194 1
   15794    15156    15195 1
   15795    15157    15158 1
   15796    15157    15196 1
   15797    15157    15197 1
   15798    15158    15159 1
   15799    15158    15198 1
   15800    15158    15199 1
   15801    15159    15160 1
   15802    15159    15200 1
   15803    15159    15201 1
   15804    15160    15161 1
   15805    15160    15167 1
   15806    15160    15202 1
   15807    15161    15162 1
   15808    15161    15203 1
   15809    15161    15204 1
   15810    15162    15163 1
   15811    15162    15205 1
   15812    15162    15206 1
   15813    15163    15164 1
   15814    15163    15207 1
   15815    15163    15208 1
   15816    15164    15165 1
   15817    15164    15209 1
   15818    15164    15210 1
   15819    15165    15166 1
   15820    15165    15211 1
   15821    15165    15212 1
   15822    15166    15213 1
   15823    15166    15214 1
   15824    15166    15215 1
   15825    15167    15168 1
   15826    15167    15216 1
   15827    15167    15217 1
   15828    15168    15169 1
   15829    15169    15170 1
   15830    15169    15218 1
   15831    15169    15219 1
   15832    15170    15171 1
   15833    15170    15177 1
   15834    15170    15220 1
   15835    15171    15172 1
   15836    15171    15221 1
   15837    15171    15222 1
   15838    15172    15173 1
   15839    15172    15223 1
   15840    15172    15224 1
   15841    15173    15174 1
   15842    15173    15225 1
   15843    15173    15226 1
   15844    15174    15175 1
   15845    15174    15227 1
   15846    15174    15228 1
   15847    15175    15176 1
   15848    15175    15229 1
   15849    15175    15230 1
   15850    15176    15231 1
   15851    15176    15232 1
   15852    15176    15233 1
   15853    15177    15178 1
   15854    15177    15234 1
   15855    15177    15235 1
   15856    15178    15179 1
   15857    15178    15236 1
   15858    15178    15237 1
   15859    15179    15180 1
   15860    15179    15238 1
   15861    15179    15239 1
   15862    15180    15181 1
   15863    15180    15240 1
   15864    15180    15241 1
   15865    15181    15182 1
   15866    15181    15242 1
   15867    15181    15243 1
   15868    15182    15183 1
   15869    15182    15244 1
   15870    15182    15245 1
   15871    15183    15184 1
   15872    15183    15246 1
   15873    15183    15247 1
   15874    15184    15248 1
   15875    15184    15249 1
   15876    15184    15250 1
   15877    15251    15252 1
   15878    15251    15258 1
   15879    15251    15290 1
   15880    15252    15253 1
   15881    15252    15256 1
   15882    15253    15254 1
   15883    15253    15257 1
   15884    15254    15255 1
   15885    15255    15256 1
   15886    15255    15266 1
   15887    15256    15262 1
   15888    15257    15258 1
   15889    15257    15261 1
   15890    15258    15259 1
   15891    15259    15260 1
   15892    15259    15263 1
   15893    15260    15261 1
   15894    15264    15265 1
   15895    15264    15272 1
   15896    15265    15266 1
   15897    15265    15273 1
   15898    15266    15267 1
   15899    15267    15268 1
   15900    15267    15271 1
   15901    15268    15269 1
   15902    15269    15270 1
   15903    15270    15271 1
   15904    15271    15272 1
   15905    15272    15382 1
   15906    15274    15275 1
   15907    15274    15307 1
   15908    15274    15308 1
   15909    15274    15309 1
   15910    15275    15276 1
   15911    15275    15310 1
   15912    15275    15311 1
   15913    15276    15277 1
   15914    15276    15312 1
   15915    15276    15313 1
   15916    15277    15278 1
   15917    15277    15314 1
   15918    15277    15315 1
   15919    15278    15279 1
   15920    15278    15316 1
   15921    15278    15317 1
   15922    15279    15280 1
   15923    15279    15318 1
   15924    15279    15319 1
   15925    15280    15281 1
   15926    15280    15320 1
   15927    15280    15321 1
   15928    15281    15282 1
   15929    15281    15322 1
   15930    15281    15323 1
   15931    15282    15283 1
   15932    15282    15289 1
   15933    15282    15324 1
   15934    15283    15284 1
   15935    15283    15325 1
   15936    15283    15326 1
   15937    15284    15285 1
   15938    15284    15327 1
   15939    15284    15328 1
   15940    15285    15286 1
   15941    15285    15329 1
   15942    15285    15330 1
   15943    15286    15287 1
   15944    15286    15331 1
   15945    15286    15332 1
   15946    15287    15288 1
   15947    15287    15333 1
   15948    15287    15334 1
   15949    15288    15335 1
   15950    15288    15336 1
   15951    15288    15337 1
   15952    15289    15290 1
   15953    15289    15338 1
   15954    15289    15339 1
   15955    15290    15291 1
   15956    15291    15292 1
   15957    15291    15340 1
   15958    15291    15341 1
   15959    15292    15293 1
   15960    15292    15299 1
   15961    15292    15342 1
   15962    15293    15294 1
   15963    15293    15343 1
   15964    15293    15344 1
   15965    15294    15295 1
   15966    15294    15345 1
   15967    15294    15346 1
   15968    15295    15296 1
   15969    15295    15347 1
   15970    15295    15348 1
   15971    15296    15297 1
   15972    15296    15349 1
   15973    15296    15350 1
   15974    15297    15298 1
   15975    15297    15351 1
   15976    15297    15352 1
   15977    15298    15353 1
   15978    15298    15354 1
   15979    15298    15355 1
   15980    15299    15300 1
   15981    15299    15356 1
   15982    15299    15357 1
   15983    15300    15301 1
   15984    15300    15358 1
   15985    15300    15359 1
   15986    15301    15302 1
   15987    15301    15360 1
   15988    15301    15361 1
   15989    15302    15303 1
   15990    15302    15362 1
   15991    15302    15363 1
   15992    15303    15304 1
   15993    15303    15364 1
   15994    15303    15365 1
   15995    15304    15305 1
   15996    15304    15366 1
   15997    15304    15367 1
   15998    15305    15306 1
   15999    15305    15368 1
   16000    15305    15369 1
   16001    15306    15370 1
   16002    15306    15371 1
   16003    15306    15372 1
   16004    15373    15374 1
   16005    15373    15380 1
   16006    15373    15412 1
   16007    15374    15375 1
   16008    15374    15378 1
   16009    15375    15376 1
   16010    15375    15379 1
   16011    15376    15377 1
   16012    15377    15378 1
   16013    15377    15388 1
   16014    15378    15384 1
   16015    15379    15380 1
   16016    15379    15383 1
   16017    15380    15381 1
   16018    15381    15382 1
   16019    15381    15385 1
   16020    15382    15383 1
   16021    15386    15387 1
   16022    15386    15394 1
   16023    15387    15388 1
   16024    15387    15395 1
   16025    15388    15389 1
   16026    15389    15390 1
   16027    15389    15393 1
   16028    15390    15391 1
   16029    15391    15392 1
   16030    15392    15393 1
   16031    15393    15394 1
   16032    15394    15504 1
   16033    15396    15397 1
   16034    15396    15429 1
   16035    15396    15430 1
   16036    15396    15431 1
   16037    15397    15398 1
   16038    15397    15432 1
   16039    15397    15433 1
   16040    15398    15399 1
   16041    15398    15434 1
   16042    15398    15435 1
   16043    15399    15400 1
   16044    15399    15436 1
   16045    15399    15437 1
   16046    15400    15401 1
   16047    15400    15438 1
   16048    15400    15439 1
   16049    15401    15402 1
   16050    15401    15440 1
   16051    15401    15441 1
   16052    15402    15403 1
   16053    15402    15442 1
   16054    15402    15443 1
   16055    15403    15404 1
   16056    15403    15444 1
   16057    15403    15445 1
   16058    15404    15405 1
   16059    15404    15411 1
   16060    15404    15446 1
   16061    15405    15406 1
   16062    15405    15447 1
   16063    15405    15448 1
   16064    15406    15407 1
   16065    15406    15449 1
   16066    15406    15450 1
   16067    15407    15408 1
   16068    15407    15451 1
   16069    15407    15452 1
   16070    15408    15409 1
   16071    15408    15453 1
   16072    15408    15454 1
   16073    15409    15410 1
   16074    15409    15455 1
   16075    15409    15456 1
   16076    15410    15457 1
   16077    15410    15458 1
   16078    15410    15459 1
   16079    15411    15412 1
   16080    15411    15460 1
   16081    15411    15461 1
   16082    15412    15413 1
   16083    15413    15414 1
   16084    15413    15462 1
   16085    15413    15463 1
   16086    15414    15415 1
   16087    15414    15421 1
   16088    15414    15464 1
   16089    15415    15416 1
   16090    15415    15465 1
   16091    15415    15466 1
   16092    15416    15417 1
   16093    15416    15467 1
   16094    15416    15468 1
   16095    15417    15418 1
   16096    15417    15469 1
   16097    15417    15470 1
   16098    15418    15419 1
   16099    15418    15471 1
   16100    15418    15472 1
   16101    15419    15420 1
   16102    15419    15473 1
   16103    15419    15474 1
   16104    15420    15475 1
   16105    15420    15476 1
   16106    15420    15477 1
   16107    15421    15422 1
   16108    15421    15478 1
   16109    15421    15479 1
   16110    15422    15423 1
   16111    15422    15480 1
   16112    15422    15481 1
   16113    15423    15424 1
   16114    15423    15482 1
   16115    15423    15483 1
   16116    15424    15425 1
   16117    15424    15484 1
   16118    15424    15485 1
   16119    15425    15426 1
   16120    15425    15486 1
   16121    15425    15487 1
   16122    15426    15427 1
   16123    15426    15488 1
   16124    15426    15489 1
   16125    15427    15428 1
   16126    15427    15490 1
   16127    15427    15491 1
   16128    15428    15492 1
   16129    15428    15493 1
   16130    15428    15494 1
   16131    15495    15496 1
   16132    15495    15502 1
   16133    15495    15534 1
   16134    15496    15497 1
   16135    15496    15500 1
   16136    15497    15498 1
   16137    15497    15501 1
   16138    15498    15499 1
   16139    15499    15500 1
   16140    15499    15510 1
   16141    15500    15506 1
   16142    15501    15502 1
   16143    15501    15505 1
   16144    15502    15503 1
   16145    15503    15504 1
   16146    15503    15507 1
   16147    15504    15505 1
   16148    15508    15509 1
   16149    15508    15516 1
   16150    15509    15510 1
   16151    15509    15517 1
   16152    15510    15511 1
   16153    15511    15512 1
   16154    15511    15515 1
   16155    15512    15513 1
   16156    15513    15514 1
   16157    15514    15515 1
   16158    15515    15516 1
   16159    15516    15626 1
   16160    15518    15519 1
   16161    15518    15551 1
   16162    15518    15552 1
   16163    15518    15553 1
   16164    15519    15520 1
   16165    15519    15554 1
   16166    15519    15555 1
   16167    15520    15521 1
   16168    15520    15556 1
   16169    15520    15557 1
   16170    15521    15522 1
   16171    15521    15558 1
   16172    15521    15559 1
   16173    15522    15523 1
   16174    15522    15560 1
   16175    15522    15561 1
   16176    15523    15524 1
   16177    15523    15562 1
   16178    15523    15563 1
   16179    15524    15525 1
   16180    15524    15564 1
   16181    15524    15565 1
   16182    15525    15526 1
   16183    15525    15566 1
   16184    15525    15567 1
   16185    15526    15527 1
   16186    15526    15533 1
   16187    15526    15568 1
   16188    15527    15528 1
   16189    15527    15569 1
   16190    15527    15570 1
   16191    15528    15529 1
   16192    15528    15571 1
   16193    15528    15572 1
   16194    15529    15530 1
   16195    15529    15573 1
   16196    15529    15574 1
   16197    15530    15531 1
   16198    15530    15575 1
   16199    15530    15576 1
   16200    15531    15532 1
   16201    15531    15577 1
   16202    15531    15578 1
   16203    15532    15579 1
   16204    15532    15580 1
   16205    15532    15581 1
   16206    15533    15534 1
   16207    15533    15582 1
   16208    15533    15583 1
   16209    15534    15535 1
   16210    15535    15536 1
   16211    15535    15584 1
   16212    15535    15585 1
   16213    15536    15537 1
   16214    15536    15543 1
   16215    15536    15586 1
   16216    15537    15538 1
   16217    15537    15587 1
   16218    15537    15588 1
   16219    15538    15539 1
   16220    15538    15589 1
   16221    15538    15590 1
   16222    15539    15540 1
   16223    15539    15591 1
   16224    15539    15592 1
   16225    15540    15541 1
   16226    15540    15593 1
   16227    15540    15594 1
   16228    15541    15542 1
   16229    15541    15595 1
   16230    15541    15596 1
   16231    15542    15597 1
   16232    15542    15598 1
   16233    15542    15599 1
   16234    15543    15544 1
   16235    15543    15600 1
   16236    15543    15601 1
   16237    15544    15545 1
   16238    15544    15602 1
   16239    15544    15603 1
   16240    15545    15546 1
   16241    15545    15604 1
   16242    15545    15605 1
   16243    15546    15547 1
   16244    15546    15606 1
   16245    15546    15607 1
   16246    15547    15548 1
   16247    15547    15608 1
   16248    15547    15609 1
   16249    15548    15549 1
   16250    15548    15610 1
   16251    15548    15611 1
   16252    15549    15550 1
   16253    15549    15612 1
   16254    15549    15613 1
   16255    15550    15614 1
   16256    15550    15615 1
   16257    15550    15616 1
   16258    15617    15618 1
   16259    15617    15624 1
   16260    15617    15656 1
   16261    15618    15619 1
   16262    15618    15622 1
   16263    15619    15620 1
   16264    15619    15623 1
   16265    15620    15621 1
   16266    15621    15622 1
   16267    15621    15632 1
   16268    15622    15628 1
   16269    15623    15624 1
   16270    15623    15627 1
   16271    15624    15625 1
   16272    15625    15626 1
   16273    15625    15629 1
   16274    15626    15627 1
   16275    15630    15631 1
   16276    15630    15638 1
   16277    15631    15632 1
   16278    15631    15639 1
   16279    15632    15633 1
   16280    15633    15634 1
   16281    15633    15637 1
   16282    15634    15635 1
   16283    15635    15636 1
   16284    15636    15637 1
   16285    15637    15638 1
   16286    15638    15748 1
   16287    15640    15641 1
   16288    15640    15673 1
   16289    15640    15674 1
   16290    15640    15675 1
   16291    15641    15642 1
   16292    15641    15676 1
   16293    15641    15677 1
   16294    15642    15643 1
   16295    15642    15678 1
   16296    15642    15679 1
   16297    15643    15644 1
   16298    15643    15680 1
   16299    15643    15681 1
   16300    15644    15645 1
   16301    15644    15682 1
   16302    15644    15683 1
   16303    15645    15646 1
   16304    15645    15684 1
   16305    15645    15685 1
   16306    15646    15647 1
   16307    15646    15686 1
   16308    15646    15687 1
   16309    15647    15648 1
   16310    15647    15688 1
   16311    15647    15689 1
   16312    15648    15649 1
   16313    15648    15655 1
   16314    15648    15690 1
   16315    15649    15650 1
   16316    15649    15691 1
   16317    15649    15692 1
   16318    15650    15651 1
   16319    15650    15693 1
   16320    15650    15694 1
   16321    15651    15652 1
   16322    15651    15695 1
   16323    15651    15696 1
   16324    15652    15653 1
   16325    15652    15697 1
   16326    15652    15698 1
   16327    15653    15654 1
   16328    15653    15699 1
   16329    15653    15700 1
   16330    15654    15701 1
   16331    15654    15702 1
   16332    15654    15703 1
   16333    15655    15656 1
   16334    15655    15704 1
   16335    15655    15705 1
   16336    15656    15657 1
   16337    15657    15658 1
   16338    15657    15706 1
   16339    15657    15707 1
   16340    15658    15659 1
   16341    15658    15665 1
   16342    15658    15708 1
   16343    15659    15660 1
   16344    15659    15709 1
   16345    15659    15710 1
   16346    15660    15661 1
   16347    15660    15711 1
   16348    15660    15712 1
   16349    15661    15662 1
   16350    15661    15713 1
   16351    15661    15714 1
   16352    15662    15663 1
   16353    15662    15715 1
   16354    15662    15716 1
   16355    15663    15664 1
   16356    15663    15717 1
   16357    15663    15718 1
   16358    15664    15719 1
   16359    15664    15720 1
   16360    15664    15721 1
   16361    15665    15666 1
   16362    15665    15722 1
   16363    15665    15723 1
   16364    15666    15667 1
   16365    15666    15724 1
   16366    15666    15725 1
   16367    15667    15668 1
   16368    15667    15726 1
   16369    15667    15727 1
   16370    15668    15669 1
   16371    15668    15728 1
   16372    15668    15729 1
   16373    15669    15670 1
   16374    15669    15730 1
   16375    15669    15731 1
   16376    15670    15671 1
   16377    15670    15732 1
   16378    15670    15733 1
   16379    15671    15672 1
   16380    15671    15734 1
   16381    15671    15735 1
   16382    15672    15736 1
   16383    15672    15737 1
   16384    15672    15738 1
   16385    15739    15740 1
   16386    15739    15746 1
   16387    15739    15778 1
   16388    15740    15741 1
   16389    15740    15744 1
   16390    15741    15742 1
   16391    15741    15745 1
   16392    15742    15743 1
   16393    15743    15744 1
   16394    15743    15754 1
   16395    15744    15750 1
   16396    15745    15746 1
   16397    15745    15749 1
   16398    15746    15747 1
   16399    15747    15748 1
   16400    15747    15751 1
   16401    15748    15749 1
   16402    15752    15753 1
   16403    15752    15760 1
   16404    15753    15754 1
   16405    15753    15761 1
   16406    15754    15755 1
   16407    15755    15756 1
   16408    15755    15759 1
   16409    15756    15757 1
   16410    15757    15758 1
   16411    15758    15759 1
   16412    15759    15760 1
   16413    15760    15870 1
   16414    15762    15763 1
   16415    15762    15795 1
   16416    15762    15796 1
   16417    15762    15797 1
   16418    15763    15764 1
   16419    15763    15798 1
   16420    15763    15799 1
   16421    15764    15765 1
   16422    15764    15800 1
   16423    15764    15801 1
   16424    15765    15766 1
   16425    15765    15802 1
   16426    15765    15803 1
   16427    15766    15767 1
   16428    15766    15804 1
   16429    15766    15805 1
   16430    15767    15768 1
   16431    15767    15806 1
   16432    15767    15807 1
   16433    15768    15769 1
   16434    15768    15808 1
   16435    15768    15809 1
   16436    15769    15770 1
   16437    15769    15810 1
   16438    15769    15811 1
   16439    15770    15771 1
   16440    15770    15777 1
   16441    15770    15812 1
   16442    15771    15772 1
   16443    15771    15813 1
   16444    15771    15814 1
   16445    15772    15773 1
   16446    15772    15815 1
   16447    15772    15816 1
   16448    15773    15774 1
   16449    15773    15817 1
   16450    15773    15818 1
   16451    15774    15775 1
   16452    15774    15819 1
   16453    15774    15820 1
   16454    15775    15776 1
   16455    15775    15821 1
   16456    15775    15822 1
   16457    15776    15823 1
   16458    15776    15824 1
   16459    15776    15825 1
   16460    15777    15778 1
   16461    15777    15826 1
   16462    15777    15827 1
   16463    15778    15779 1
   16464    15779    15780 1
   16465    15779    15828 1
   16466    15779    15829 1
   16467    15780    15781 1
   16468    15780    15787 1
   16469    15780    15830 1
   16470    15781    15782 1
   16471    15781    15831 1
   16472    15781    15832 1
   16473    15782    15783 1
   16474    15782    15833 1
   16475    15782    15834 1
   16476    15783    15784 1
   16477    15783    15835 1
   16478    15783    15836 1
   16479    15784    15785 1
   16480    15784    15837 1
   16481    15784    15838 1
   16482    15785    15786 1
   16483    15785    15839 1
   16484    15785    15840 1
   16485    15786    15841 1
   16486    15786    15842 1
   16487    15786    15843 1
   16488    15787    15788 1
   16489    15787    15844 1
   16490    15787    15845 1
   16491    15788    15789 1
   16492    15788    15846 1
   16493    15788    15847 1
   16494    15789    15790 1
   16495    15789    15848 1
   16496    15789    15849 1
   16497    15790    15791 1
   16498    15790    15850 1
   16499    15790    15851 1
   16500    15791    15792 1
   16501    15791    15852 1
   16502    15791    15853 1
   16503    15792    15793 1
   16504    15792    15854 1
   16505    15792    15855 1
   16506    15793    15794 1
   16507    15793    15856 1
   16508    15793    15857 1
   16509    15794    15858 1
   16510    15794    15859 1
   16511    15794    15860 1
   16512    15861    15862 1
   16513    15861    15868 1
   16514    15861    15900 1
   16515    15862    15863 1
   16516    15862    15866 1
   16517    15863    15864 1
   16518    15863    15867 1
   16519    15864    15865 1
   16520    15865    15866 1
   16521    15865    15876 1
   16522    15866    15872 1
   16523    15867    15868 1
   16524    15867    15871 1
   16525    15868    15869 1
   16526    15869    15870 1
   16527    15869    15873 1
   16528    15870    15871 1
   16529    15874    15875 1
   16530    15874    15882 1
   16531    15875    15876 1
   16532    15875    15883 1
   16533    15876    15877 1
   16534    15877    15878 1
   16535    15877    15881 1
   16536    15878    15879 1
   16537    15879    15880 1
   16538    15880    15881 1
   16539    15881    15882 1
   16540    15882    15992 1
   16541    15884    15885 1
   16542    15884    15917 1
   16543    15884    15918 1
   16544    15884    15919 1
   16545    15885    15886 1
   16546    15885    15920 1
   16547    15885    15921 1
   16548    15886    15887 1
   16549    15886    15922 1
   16550    15886    15923 1
   16551    15887    15888 1
   16552    15887    15924 1
   16553    15887    15925 1
   16554    15888    15889 1
   16555    15888    15926 1
   16556    15888    15927 1
   16557    15889    15890 1
   16558    15889    15928 1
   16559    15889    15929 1
   16560    15890    15891 1
   16561    15890    15930 1
   16562    15890    15931 1
   16563    15891    15892 1
   16564    15891    15932 1
   16565    15891    15933 1
   16566    15892    15893 1
   16567    15892    15899 1
   16568    15892    15934 1
   16569    15893    15894 1
   16570    15893    15935 1
   16571    15893    15936 1
   16572    15894    15895 1
   16573    15894    15937 1
   16574    15894    15938 1
   16575    15895    15896 1
   16576    15895    15939 1
   16577    15895    15940 1
   16578    15896    15897 1
   16579    15896    15941 1
   16580    15896    15942 1
   16581    15897    15898 1
   16582    15897    15943 1
   16583    15897    15944 1
   16584    15898    15945 1
   16585    15898    15946 1
   16586    15898    15947 1
   16587    15899    15900 1
   16588    15899    15948 1
   16589    15899    15949 1
   16590    15900    15901 1
   16591    15901    15902 1
   16592    15901    15950 1
   16593    15901    15951 1
   16594    15902    15903 1
   16595    15902    15909 1
   16596    15902    15952 1
   16597    15903    15904 1
   16598    15903    15953 1
   16599    15903    15954 1
   16600    15904    15905 1
   16601    15904    15955 1
   16602    15904    15956 1
   16603    15905    15906 1
   16604    15905    15957 1
   16605    15905    15958 1
   16606    15906    15907 1
   16607    15906    15959 1
   16608    15906    15960 1
   16609    15907    15908 1
   16610    15907    15961 1
   16611    15907    15962 1
   16612    15908    15963 1
   16613    15908    15964 1
   16614    15908    15965 1
   16615    15909    15910 1
   16616    15909    15966 1
   16617    15909    15967 1
   16618    15910    15911 1
   16619    15910    15968 1
   16620    15910    15969 1
   16621    15911    15912 1
   16622    15911    15970 1
   16623    15911    15971 1
   16624    15912    15913 1
   16625    15912    15972 1
   16626    15912    15973 1
   16627    15913    15914 1
   16628    15913    15974 1
   16629    15913    15975 1
   16630    15914    15915 1
   16631    15914    15976 1
   16632    15914    15977 1
   16633    15915    15916 1
   16634    15915    15978 1
   16635    15915    15979 1
   16636    15916    15980 1
   16637    15916    15981 1
   16638    15916    15982 1
   16639    15983    15984 1
   16640    15983    15990 1
   16641    15983    16022 1
   16642    15984    15985 1
   16643    15984    15988 1
   16644    15985    15986 1
   16645    15985    15989 1
   16646    15986    15987 1
   16647    15987    15988 1
   16648    15987    15998 1
   16649    15988    15994 1
   16650    15989    15990 1
   16651    15989    15993 1
   16652    15990    15991 1
   16653    15991    15992 1
   16654    15991    15995 1
   16655    15992    15993 1
   16656    15996    15997 1
   16657    15996    16004 1
   16658    15997    15998 1
   16659    15997    16005 1
   16660    15998    15999 1
   16661    15999    16000 1
   16662    15999    16003 1
   16663    16000    16001 1
   16664    16001    16002 1
   16665    16002    16003 1
   16666    16003    16004 1
   16667    16004    16114 1
   16668    16006    16007 1
   16669    16006    16039 1
   16670    16006    16040 1
   16671    16006    16041 1
   16672    16007    16008 1
   16673    16007    16042 1
   16674    16007    16043 1
   16675    16008    16009 1
   16676    16008    16044 1
   16677    16008    16045 1
   16678    16009    16010 1
   16679    16009    16046 1
   16680    16009    16047 1
   16681    16010    16011 1
   16682    16010    16048 1
   16683    16010    16049 1
   16684    16011    16012 1
   16685    16011    16050 1
   16686    16011    16051 1
   16687    16012    16013 1
   16688    16012    16052 1
   16689    16012    16053 1
   16690    16013    16014 1
   16691    16013    16054 1
   16692    16013    16055 1
   16693    16014    16015 1
   16694    16014    16021 1
   16695    16014    16056 1
   16696    16015    16016 1
   16697    16015    16057 1
   16698    16015    16058 1
   16699    16016    16017 1
   16700    16016    16059 1
   16701    16016    16060 1
   16702    16017    16018 1
   16703    16017    16061 1
   16704    16017    16062 1
   16705    16018    16019 1
   16706    16018    16063 1
   16707    16018    16064 1
   16708    16019    16020 1
   16709    16019    16065 1
   16710    16019    16066 1
   16711    16020    16067 1
   16712    16020    16068 1
   16713    16020    16069 1
   16714    16021    16022 1
   16715    16021    16070 1
   16716    16021    16071 1
   16717    16022    16023 1
   16718    16023    16024 1
   16719    16023    16072 1
   16720    16023    16073 1
   16721    16024    16025 1
   16722    16024    16031 1
   16723    16024    16074 1
   16724    16025    16026 1
   16725    16025    16075 1
   16726    16025    16076 1
   16727    16026    16027 1
   16728    16026    16077 1
   16729    16026    16078 1
   16730    16027    16028 1
   16731    16027    16079 1
   16732    16027    16080 1
   16733    16028    16029 1
   16734    16028    16081 1
   16735    16028    16082 1
   16736    16029    16030 1
   16737    16029    16083 1
   16738    16029    16084 1
   16739    16030    16085 1
   16740    16030    16086 1
   16741    16030    16087 1
   16742    16031    16032 1
   16743    16031    16088 1
   16744    16031    16089 1
   16745    16032    16033 1
   16746    16032    16090 1
   16747    16032    16091 1
   16748    16033    16034 1
   16749    16033    16092 1
   16750    16033    16093 1
   16751    16034    16035 1
   16752    16034    16094 1
   16753    16034    16095 1
   16754    16035    16036 1
   16755    16035    16096 1
   16756    16035    16097 1
   16757    16036    16037 1
   16758    16036    16098 1
   16759    16036    16099 1
   16760    16037    16038 1
   16761    16037    16100 1
   16762    16037    16101 1
   16763    16038    16102 1
   16764    16038    16103 1
   16765    16038    16104 1
   16766    16105    16106 1
   16767    16105    16112 1
   16768    16105    16144 1
   16769    16106    16107 1
   16770    16106    16110 1
   16771    16107    16108 1
   16772    16107    16111 1
   16773    16108    16109 1
   16774    16109    16110 1
   16775    16109    16120 1
   16776    16110    16116 1
   16777    16111    16112 1
   16778    16111    16115 1
   16779    16112    16113 1
   16780    16113    16114 1
   16781    16113    16117 1
   16782    16114    16115 1
   16783    16118    16119 1
   16784    16118    16126 1
   16785    16119    16120 1
   16786    16119    16127 1
   16787    16120    16121 1
   16788    16121    16122 1
   16789    16121    16125 1
   16790    16122    16123 1
   16791    16123    16124 1
   16792    16124    16125 1
   16793    16125    16126 1
   16794    16126    16236 1
   16795    16128    16129 1
   16796    16128    16161 1
   16797    16128    16162 1
   16798    16128    16163 1
   16799    16129    16130 1
   16800    16129    16164 1
   16801    16129    16165 1
   16802    16130    16131 1
   16803    16130    16166 1
   16804    16130    16167 1
   16805    16131    16132 1
   16806    16131    16168 1
   16807    16131    16169 1
   16808    16132    16133 1
   16809    16132    16170 1
   16810    16132    16171 1
   16811    16133    16134 1
   16812    16133    16172 1
   16813    16133    16173 1
   16814    16134    16135 1
   16815    16134    16174 1
   16816    16134    16175 1
   16817    16135    16136 1
   16818    16135    16176 1
   16819    16135    16177 1
   16820    16136    16137 1
   16821    16136    16143 1
   16822    16136    16178 1
   16823    16137    16138 1
   16824    16137    16179 1
   16825    16137    16180 1
   16826    16138    16139 1
   16827    16138    16181 1
   16828    16138    16182 1
   16829    16139    16140 1
   16830    16139    16183 1
   16831    16139    16184 1
   16832    16140    16141 1
   16833    16140    16185 1
   16834    16140    16186 1
   16835    16141    16142 1
   16836    16141    16187 1
   16837    16141    16188 1
   16838    16142    16189 1
   16839    16142    16190 1
   16840    16142    16191 1
   16841    16143    16144 1
   16842    16143    16192 1
   16843    16143    16193 1
   16844    16144    16145 1
   16845    16145    16146 1
   16846    16145    16194 1
   16847    16145    16195 1
   16848    16146    16147 1
   16849    16146    16153 1
   16850    16146    16196 1
   16851    16147    16148 1
   16852    16147    16197 1
   16853    16147    16198 1
   16854    16148    16149 1
   16855    16148    16199 1
   16856    16148    16200 1
   16857    16149    16150 1
   16858    16149    16201 1
   16859    16149    16202 1
   16860    16150    16151 1
   16861    16150    16203 1
   16862    16150    16204 1
   16863    16151    16152 1
   16864    16151    16205 1
   16865    16151    16206 1
   16866    16152    16207 1
   16867    16152    16208 1
   16868    16152    16209 1
   16869    16153    16154 1
   16870    16153    16210 1
   16871    16153    16211 1
   16872    16154    16155 1
   16873    16154    16212 1
   16874    16154    16213 1
   16875    16155    16156 1
   16876    16155    16214 1
   16877    16155    16215 1
   16878    16156    16157 1
   16879    16156    16216 1
   16880    16156    16217 1
   16881    16157    16158 1
   16882    16157    16218 1
   16883    16157    16219 1
   16884    16158    16159 1
   16885    16158    16220 1
   16886    16158    16221 1
   16887    16159    16160 1
   16888    16159    16222 1
   16889    16159    16223 1
   16890    16160    16224 1
   16891    16160    16225 1
   16892    16160    16226 1
   16893    16227    16228 1
   16894    16227    16234 1
   16895    16227    16266 1
   16896    16228    16229 1
   16897    16228    16232 1
   16898    16229    16230 1
   16899    16229    16233 1
   16900    16230    16231 1
   16901    16231    16232 1
   16902    16231    16242 1
   16903    16232    16238 1
   16904    16233    16234 1
   16905    16233    16237 1
   16906    16234    16235 1
   16907    16235    16236 1
   16908    16235    16239 1
   16909    16236    16237 1
   16910    16240    16241 1
   16911    16240    16248 1
   16912    16241    16242 1
   16913    16241    16249 1
   16914    16242    16243 1
   16915    16243    16244 1
   16916    16243    16247 1
   16917    16244    16245 1
   16918    16245    16246 1
   16919    16246    16247 1
   16920    16247    16248 1
   16921    16248    16358 1
   16922    16250    16251 1
   16923    16250    16283 1
   16924    16250    16284 1
   16925    16250    16285 1
   16926    16251    16252 1
   16927    16251    16286 1
   16928    16251    16287 1
   16929    16252    16253 1
   16930    16252    16288 1
   16931    16252    16289 1
   16932    16253    16254 1
   16933    16253    16290 1
   16934    16253    16291 1
   16935    16254    16255 1
   16936    16254    16292 1
   16937    16254    16293 1
   16938    16255    16256 1
   16939    16255    16294 1
   16940    16255    16295 1
   16941    16256    16257 1
   16942    16256    16296 1
   16943    16256    16297 1
   16944    16257    16258 1
   16945    16257    16298 1
   16946    16257    16299 1
   16947    16258    16259 1
   16948    16258    16265 1
   16949    16258    16300 1
   16950    16259    16260 1
   16951    16259    16301 1
   16952    16259    16302 1
   16953    16260    16261 1
   16954    16260    16303 1
   16955    16260    16304 1
   16956    16261    16262 1
   16957    16261    16305 1
   16958    16261    16306 1
   16959    16262    16263 1
   16960    16262    16307 1
   16961    16262    16308 1
   16962    16263    16264 1
   16963    16263    16309 1
   16964    16263    16310 1
   16965    16264    16311 1
   16966    16264    16312 1
   16967    16264    16313 1
   16968    16265    16266 1
   16969    16265    16314 1
   16970    16265    16315 1
   16971    16266    16267 1
   16972    16267    16268 1
   16973    16267    16316 1
   16974    16267    16317 1
   16975    16268    16269 1
   16976    16268    16275 1
   16977    16268    16318 1
   16978    16269    16270 1
   16979    16269    16319 1
   16980    16269    16320 1
   16981    16270    16271 1
   16982    16270    16321 1
   16983    16270    16322 1
   16984    16271    16272 1
   16985    16271    16323 1
   16986    16271    16324 1
   16987    16272    16273 1
   16988    16272    16325 1
   16989    16272    16326 1
   16990    16273    16274 1
   16991    16273    16327 1
   16992    16273    16328 1
   16993    16274    16329 1
   16994    16274    16330 1
   16995    16274    16331 1
   16996    16275    16276 1
   16997    16275    16332 1
   16998    16275    16333 1
   16999    16276    16277 1
   17000    16276    16334 1
   17001    16276    16335 1
   17002    16277    16278 1
   17003    16277    16336 1
   17004    16277    16337 1
   17005    16278    16279 1
   17006    16278    16338 1
   17007    16278    16339 1
   17008    16279    16280 1
   17009    16279    16340 1
   17010    16279    16341 1
   17011    16280    16281 1
   17012    16280    16342 1
   17013    16280    16343 1
   17014    16281    16282 1
   17015    16281    16344 1
   17016    16281    16345 1
   17017    16282    16346 1
   17018    16282    16347 1
   17019    16282    16348 1
   17020    16349    16350 1
   17021    16349    16356 1
   17022    16349    16388 1
   17023    16350    16351 1
   17024    16350    16354 1
   17025    16351    16352 1
   17026    16351    16355 1
   17027    16352    16353 1
   17028    16353    16354 1
   17029    16353    16364 1
   17030    16354    16360 1
   17031    16355    16356 1
   17032    16355    16359 1
   17033    16356    16357 1
   17034    16357    16358 1
   17035    16357    16361 1
   17036    16358    16359 1
   17037    16362    16363 1
   17038    16362    16370 1
   17039    16363    16364 1
   17040    16363    16371 1
   17041    16364    16365 1
   17042    16365    16366 1
   17043    16365    16369 1
   17044    16366    16367 1
   17045    16367    16368 1
   17046    16368    16369 1
   17047    16369    16370 1
   17048    16370    16480 1
   17049    16372    16373 1
   17050    16372    16405 1
   17051    16372    16406 1
   17052    16372    16407 1
   17053    16373    16374 1
   17054    16373    16408 1
   17055    16373    16409 1
   17056    16374    16375 1
   17057    16374    16410 1
   17058    16374    16411 1
   17059    16375    16376 1
   17060    16375    16412 1
   17061    16375    16413 1
   17062    16376    16377 1
   17063    16376    16414 1
   17064    16376    16415 1
   17065    16377    16378 1
   17066    16377    16416 1
   17067    16377    16417 1
   17068    16378    16379 1
   17069    16378    16418 1
   17070    16378    16419 1
   17071    16379    16380 1
   17072    16379    16420 1
   17073    16379    16421 1
   17074    16380    16381 1
   17075    16380    16387 1
   17076    16380    16422 1
   17077    16381    16382 1
   17078    16381    16423 1
   17079    16381    16424 1
   17080    16382    16383 1
   17081    16382    16425 1
   17082    16382    16426 1
   17083    16383    16384 1
   17084    16383    16427 1
   17085    16383    16428 1
   17086    16384    16385 1
   17087    16384    16429 1
   17088    16384    16430 1
   17089    16385    16386 1
   17090    16385    16431 1
   17091    16385    16432 1
   17092    16386    16433 1
   17093    16386    16434 1
   17094    16386    16435 1
   17095    16387    16388 1
   17096    16387    16436 1
   17097    16387    16437 1
   17098    16388    16389 1
   17099    16389    16390 1
   17100    16389    16438 1
   17101    16389    16439 1
   17102    16390    16391 1
   17103    16390    16397 1
   17104    16390    16440 1
   17105    16391    16392 1
   17106    16391    16441 1
   17107    16391    16442 1
   17108    16392    16393 1
   17109    16392    16443 1
   17110    16392    16444 1
   17111    16393    16394 1
   17112    16393    16445 1
   17113    16393    16446 1
   17114    16394    16395 1
   17115    16394    16447 1
   17116    16394    16448 1
   17117    16395    16396 1
   17118    16395    16449 1
   17119    16395    16450 1
   17120    16396    16451 1
   17121    16396    16452 1
   17122    16396    16453 1
   17123    16397    16398 1
   17124    16397    16454 1
   17125    16397    16455 1
   17126    16398    16399 1
   17127    16398    16456 1
   17128    16398    16457 1
   17129    16399    16400 1
   17130    16399    16458 1
   17131    16399    16459 1
   17132    16400    16401 1
   17133    16400    16460 1
   17134    16400    16461 1
   17135    16401    16402 1
   17136    16401    16462 1
   17137    16401    16463 1
   17138    16402    16403 1
   17139    16402    16464 1
   17140    16402    16465 1
   17141    16403    16404 1
   17142    16403    16466 1
   17143    16403    16467 1
   17144    16404    16468 1
   17145    16404    16469 1
   17146    16404    16470 1
   17147    16471    16472 1
   17148    16471    16478 1
   17149    16471    16510 1
   17150    16472    16473 1
   17151    16472    16476 1
   17152    16473    16474 1
   17153    16473    16477 1
   17154    16474    16475 1
   17155    16475    16476 1
   17156    16475    16486 1
   17157    16476    16482 1
   17158    16477    16478 1
   17159    16477    16481 1
   17160    16478    16479 1
   17161    16479    16480 1
   17162    16479    16483 1
   17163    16480    16481 1
   17164    16484    16485 1
   17165    16484    16492 1
   17166    16485    16486 1
   17167    16485    16493 1
   17168    16486    16487 1
   17169    16487    16488 1
   17170    16487    16491 1
   17171    16488    16489 1
   17172    16489    16490 1
   17173    16490    16491 1
   17174    16491    16492 1
   17175    16492    16602 1
   17176    16494    16495 1
   17177    16494    16527 1
   17178    16494    16528 1
   17179    16494    16529 1
   17180    16495    16496 1
   17181    16495    16530 1
   17182    16495    16531 1
   17183    16496    16497 1
   17184    16496    16532 1
   17185    16496    16533 1
   17186    16497    16498 1
   17187    16497    16534 1
   17188    16497    16535 1
   17189    16498    16499 1
   17190    16498    16536 1
   17191    16498    16537 1
   17192    16499    16500 1
   17193    16499    16538 1
   17194    16499    16539 1
   17195    16500    16501 1
   17196    16500    16540 1
   17197    16500    16541 1
   17198    16501    16502 1
   17199    16501    16542 1
   17200    16501    16543 1
   17201    16502    16503 1
   17202    16502    16509 1
   17203    16502    16544 1
   17204    16503    16504 1
   17205    16503    16545 1
   17206    16503    16546 1
   17207    16504    16505 1
   17208    16504    16547 1
   17209    16504    16548 1
   17210    16505    16506 1
   17211    16505    16549 1
   17212    16505    16550 1
   17213    16506    16507 1
   17214    16506    16551 1
   17215    16506    16552 1
   17216    16507    16508 1
   17217    16507    16553 1
   17218    16507    16554 1
   17219    16508    16555 1
   17220    16508    16556 1
   17221    16508    16557 1
   17222    16509    16510 1
   17223    16509    16558 1
   17224    16509    16559 1
   17225    16510    16511 1
   17226    16511    16512 1
   17227    16511    16560 1
   17228    16511    16561 1
   17229    16512    16513 1
   17230    16512    16519 1
   17231    16512    16562 1
   17232    16513    16514 1
   17233    16513    16563 1
   17234    16513    16564 1
   17235    16514    16515 1
   17236    16514    16565 1
   17237    16514    16566 1
   17238    16515    16516 1
   17239    16515    16567 1
   17240    16515    16568 1
   17241    16516    16517 1
   17242    16516    16569 1
   17243    16516    16570 1
   17244    16517    16518 1
   17245    16517    16571 1
   17246    16517    16572 1
   17247    16518    16573 1
   17248    16518    16574 1
   17249    16518    16575 1
   17250    16519    16520 1
   17251    16519    16576 1
   17252    16519    16577 1
   17253    16520    16521 1
   17254    16520    16578 1
   17255    16520    16579 1
   17256    16521    16522 1
   17257    16521    16580 1
   17258    16521    16581 1
   17259    16522    16523 1
   17260    16522    16582 1
   17261    16522    16583 1
   17262    16523    16524 1
   17263    16523    16584 1
   17264    16523    16585 1
   17265    16524    16525 1
   17266    16524    16586 1
   17267    16524    16587 1
   17268    16525    16526 1
   17269    16525    16588 1
   17270    16525    16589 1
   17271    16526    16590 1
   17272    16526    16591 1
   17273    16526    16592 1
   17274    16593    16594 1
   17275    16593    16600 1
   17276    16593    16632 1
   17277    16594    16595 1
   17278    16594    16598 1
   17279    16595    16596 1
   17280    16595    16599 1
   17281    16596    16597 1
   17282    16597    16598 1
   17283    16597    16608 1
   17284    16598    16604 1
   17285    16599    16600 1
   17286    16599    16603 1
   17287    16600    16601 1
   17288    16601    16602 1
   17289    16601    16605 1
   17290    16602    16603 1
   17291    16606    16607 1
   17292    16606    16614 1
   17293    16607    16608 1
   17294    16607    16615 1
   17295    16608    16609 1
   17296    16609    16610 1
   17297    16609    16613 1
   17298    16610    16611 1
   17299    16611    16612 1
   17300    16612    16613 1
   17301    16613    16614 1
   17302    16614    16724 1
   17303    16616    16617 1
   17304    16616    16649 1
   17305    16616    16650 1
   17306    16616    16651 1
   17307    16617    16618 1
   17308    16617    16652 1
   17309    16617    16653 1
   17310    16618    16619 1
   17311    16618    16654 1
   17312    16618    16655 1
   17313    16619    16620 1
   17314    16619    16656 1
   17315    16619    16657 1
   17316    16620    16621 1
   17317    16620    16658 1
   17318    16620    16659 1
   17319    16621    16622 1
   17320    16621    16660 1
   17321    16621    16661 1
   17322    16622    16623 1
   17323    16622    16662 1
   17324    16622    16663 1
   17325    16623    16624 1
   17326    16623    16664 1
   17327    16623    16665 1
   17328    16624    16625 1
   17329    16624    16631 1
   17330    16624    16666 1
   17331    16625    16626 1
   17332    16625    16667 1
   17333    16625    16668 1
   17334    16626    16627 1
   17335    16626    16669 1
   17336    16626    16670 1
   17337    16627    16628 1
   17338    16627    16671 1
   17339    16627    16672 1
   17340    16628    16629 1
   17341    16628    16673 1
   17342    16628    16674 1
   17343    16629    16630 1
   17344    16629    16675 1
   17345    16629    16676 1
   17346    16630    16677 1
   17347    16630    16678 1
   17348    16630    16679 1
   17349    16631    16632 1
   17350    16631    16680 1
   17351    16631    16681 1
   17352    16632    16633 1
   17353    16633    16634 1
   17354    16633    16682 1
   17355    16633    16683 1
   17356    16634    16635 1
   17357    16634    16641 1
   17358    16634    16684 1
   17359    16635    16636 1
   17360    16635    16685 1
   17361    16635    16686 1
   17362    16636    16637 1
   17363    16636    16687 1
   17364    16636    16688 1
   17365    16637    16638 1
   17366    16637    16689 1
   17367    16637    16690 1
   17368    16638    16639 1
   17369    16638    16691 1
   17370    16638    16692 1
   17371    16639    16640 1
   17372    16639    16693 1
   17373    16639    16694 1
   17374    16640    16695 1
   17375    16640    16696 1
   17376    16640    16697 1
   17377    16641    16642 1
   17378    16641    16698 1
   17379    16641    16699 1
   17380    16642    16643 1
   17381    16642    16700 1
   17382    16642    16701 1
   17383    16643    16644 1
   17384    16643    16702 1
   17385    16643    16703 1
   17386    16644    16645 1
   17387    16644    16704 1
   17388    16644    16705 1
   17389    16645    16646 1
   17390    16645    16706 1
   17391    16645    16707 1
   17392    16646    16647 1
   17393    16646    16708 1
   17394    16646    16709 1
   17395    16647    16648 1
   17396    16647    16710 1
   17397    16647    16711 1
   17398    16648    16712 1
   17399    16648    16713 1
   17400    16648    16714 1
   17401    16715    16716 1
   17402    16715    16722 1
   17403    16715    16754 1
   17404    16716    16717 1
   17405    16716    16720 1
   17406    16717    16718 1
   17407    16717    16721 1
   17408    16718    16719 1
   17409    16719    16720 1
   17410    16719    16730 1
   17411    16720    16726 1
   17412    16721    16722 1
   17413    16721    16725 1
   17414    16722    16723 1
   17415    16723    16724 1
   17416    16723    16727 1
   17417    16724    16725 1
   17418    16728    16729 1
   17419    16728    16736 1
   17420    16729    16730 1
   17421    16729    16737 1
   17422    16730    16731 1
   17423    16731    16732 1
   17424    16731    16735 1
   17425    16732    16733 1
   17426    16733    16734 1
   17427    16734    16735 1
   17428    16735    16736 1
   17429    16736    16846 1
   17430    16738    16739 1
   17431    16738    16771 1
   17432    16738    16772 1
   17433    16738    16773 1
   17434    16739    16740 1
   17435    16739    16774 1
   17436    16739    16775 1
   17437    16740    16741 1
   17438    16740    16776 1
   17439    16740    16777 1
   17440    16741    16742 1
   17441    16741    16778 1
   17442    16741    16779 1
   17443    16742    16743 1
   17444    16742    16780 1
   17445    16742    16781 1
   17446    16743    16744 1
   17447    16743    16782 1
   17448    16743    16783 1
   17449    16744    16745 1
   17450    16744    16784 1
   17451    16744    16785 1
   17452    16745    16746 1
   17453    16745    16786 1
   17454    16745    16787 1
   17455    16746    16747 1
   17456    16746    16753 1
   17457    16746    16788 1
   17458    16747    16748 1
   17459    16747    16789 1
   17460    16747    16790 1
   17461    16748    16749 1
   17462    16748    16791 1
   17463    16748    16792 1
   17464    16749    16750 1
   17465    16749    16793 1
   17466    16749    16794 1
   17467    16750    16751 1
   17468    16750    16795 1
   17469    16750    16796 1
   17470    16751    16752 1
   17471    16751    16797 1
   17472    16751    16798 1
   17473    16752    16799 1
   17474    16752    16800 1
   17475    16752    16801 1
   17476    16753    16754 1
   17477    16753    16802 1
   17478    16753    16803 1
   17479    16754    16755 1
   17480    16755    16756 1
   17481    16755    16804 1
   17482    16755    16805 1
   17483    16756    16757 1
   17484    16756    16763 1
   17485    16756    16806 1
   17486    16757    16758 1
   17487    16757    16807 1
   17488    16757    16808 1
   17489    16758    16759 1
   17490    16758    16809 1
   17491    16758    16810 1
   17492    16759    16760 1
   17493    16759    16811 1
   17494    16759    16812 1
   17495    16760    16761 1
   17496    16760    16813 1
   17497    16760    16814 1
   17498    16761    16762 1
   17499    16761    16815 1
   17500    16761    16816 1
   17501    16762    16817 1
   17502    16762    16818 1
   17503    16762    16819 1
   17504    16763    16764 1
   17505    16763    16820 1
   17506    16763    16821 1
   17507    16764    16765 1
   17508    16764    16822 1
   17509    16764    16823 1
   17510    16765    16766 1
   17511    16765    16824 1
   17512    16765    16825 1
   17513    16766    16767 1
   17514    16766    16826 1
   17515    16766    16827 1
   17516    16767    16768 1
   17517    16767    16828 1
   17518    16767    16829 1
   17519    16768    16769 1
   17520    16768    16830 1
   17521    16768    16831 1
   17522    16769    16770 1
   17523    16769    16832 1
   17524    16769    16833 1
   17525    16770    16834 1
   17526    16770    16835 1
   17527    16770    16836 1
   17528    16837    16838 1
   17529    16837    16844 1
   17530    16837    16876 1
   17531    16838    16839 1
   17532    16838    16842 1
   17533    16839    16840 1
   17534    16839    16843 1
   17535    16840    16841 1
   17536    16841    16842 1
   17537    16841    16852 1
   17538    16842    16848 1
   17539    16843    16844 1
   17540    16843    16847 1
   17541    16844    16845 1
   17542    16845    16846 1
   17543    16845    16849 1
   17544    16846    16847 1
   17545    16850    16851 1
   17546    16850    16858 1
   17547    16851    16852 1
   17548    16851    16859 1
   17549    16852    16853 1
   17550    16853    16854 1
   17551    16853    16857 1
   17552    16854    16855 1
   17553    16855    16856 1
   17554    16856    16857 1
   17555    16857    16858 1
   17556    16858    16968 1
   17557    16860    16861 1
   17558    16860    16893 1
   17559    16860    16894 1
   17560    16860    16895 1
   17561    16861    16862 1
   17562    16861    16896 1
   17563    16861    16897 1
   17564    16862    16863 1
   17565    16862    16898 1
   17566    16862    16899 1
   17567    16863    16864 1
   17568    16863    16900 1
   17569    16863    16901 1
   17570    16864    16865 1
   17571    16864    16902 1
   17572    16864    16903 1
   17573    16865    16866 1
   17574    16865    16904 1
   17575    16865    16905 1
   17576    16866    16867 1
   17577    16866    16906 1
   17578    16866    16907 1
   17579    16867    16868 1
   17580    16867    16908 1
   17581    16867    16909 1
   17582    16868    16869 1
   17583    16868    16875 1
   17584    16868    16910 1
   17585    16869    16870 1
   17586    16869    16911 1
   17587    16869    16912 1
   17588    16870    16871 1
   17589    16870    16913 1
   17590    16870    16914 1
   17591    16871    16872 1
   17592    16871    16915 1
   17593    16871    16916 1
   17594    16872    16873 1
   17595    16872    16917 1
   17596    16872    16918 1
   17597    16873    16874 1
   17598    16873    16919 1
   17599    16873    16920 1
   17600    16874    16921 1
   17601    16874    16922 1
   17602    16874    16923 1
   17603    16875    16876 1
   17604    16875    16924 1
   17605    16875    16925 1
   17606    16876    16877 1
   17607    16877    16878 1
   17608    16877    16926 1
   17609    16877    16927 1
   17610    16878    16879 1
   17611    16878    16885 1
   17612    16878    16928 1
   17613    16879    16880 1
   17614    16879    16929 1
   17615    16879    16930 1
   17616    16880    16881 1
   17617    16880    16931 1
   17618    16880    16932 1
   17619    16881    16882 1
   17620    16881    16933 1
   17621    16881    16934 1
   17622    16882    16883 1
   17623    16882    16935 1
   17624    16882    16936 1
   17625    16883    16884 1
   17626    16883    16937 1
   17627    16883    16938 1
   17628    16884    16939 1
   17629    16884    16940 1
   17630    16884    16941 1
   17631    16885    16886 1
   17632    16885    16942 1
   17633    16885    16943 1
   17634    16886    16887 1
   17635    16886    16944 1
   17636    16886    16945 1
   17637    16887    16888 1
   17638    16887    16946 1
   17639    16887    16947 1
   17640    16888    16889 1
   17641    16888    16948 1
   17642    16888    16949 1
   17643    16889    16890 1
   17644    16889    16950 1
   17645    16889    16951 1
   17646    16890    16891 1
   17647    16890    16952 1
   17648    16890    16953 1
   17649    16891    16892 1
   17650    16891    16954 1
   17651    16891    16955 1
   17652    16892    16956 1
   17653    16892    16957 1
   17654    16892    16958 1
   17655    16959    16960 1
   17656    16959    16966 1
   17657    16959    16998 1
   17658    16960    16961 1
   17659    16960    16964 1
   17660    16961    16962 1
   17661    16961    16965 1
   17662    16962    16963 1
   17663    16963    16964 1
   17664    16963    16974 1
   17665    16964    16970 1
   17666    16965    16966 1
   17667    16965    16969 1
   17668    16966    16967 1
   17669    16967    16968 1
   17670    16967    16971 1
   17671    16968    16969 1
   17672    16972    16973 1
   17673    16972    16980 1
   17674    16973    16974 1
   17675    16973    16981 1
   17676    16974    16975 1
   17677    16975    16976 1
   17678    16975    16979 1
   17679    16976    16977 1
   17680    16977    16978 1
   17681    16978    16979 1
   17682    16979    16980 1
   17683    16980    17090 1
   17684    16982    16983 1
   17685    16982    17015 1
   17686    16982    17016 1
   17687    16982    17017 1
   17688    16983    16984 1
   17689    16983    17018 1
   17690    16983    17019 1
   17691    16984    16985 1
   17692    16984    17020 1
   17693    16984    17021 1
   17694    16985    16986 1
   17695    16985    17022 1
   17696    16985    17023 1
   17697    16986    16987 1
   17698    16986    17024 1
   17699    16986    17025 1
   17700    16987    16988 1
   17701    16987    17026 1
   17702    16987    17027 1
   17703    16988    16989 1
   17704    16988    17028 1
   17705    16988    17029 1
   17706    16989    16990 1
   17707    16989    17030 1
   17708    16989    17031 1
   17709    16990    16991 1
   17710    16990    16997 1
   17711    16990    17032 1
   17712    16991    16992 1
   17713    16991    17033 1
   17714    16991    17034 1
   17715    16992    16993 1
   17716    16992    17035 1
   17717    16992    17036 1
   17718    16993    16994 1
   17719    16993    17037 1
   17720    16993    17038 1
   17721    16994    16995 1
   17722    16994    17039 1
   17723    16994    17040 1
   17724    16995    16996 1
   17725    16995    17041 1
   17726    16995    17042 1
   17727    16996    17043 1
   17728    16996    17044 1
   17729    16996    17045 1
   17730    16997    16998 1
   17731    16997    17046 1
   17732    16997    17047 1
   17733    16998    16999 1
   17734    16999    17000 1
   17735    16999    17048 1
   17736    16999    17049 1
   17737    17000    17001 1
   17738    17000    17007 1
   17739    17000    17050 1
   17740    17001    17002 1
   17741    17001    17051 1
   17742    17001    17052 1
   17743    17002    17003 1
   17744    17002    17053 1
   17745    17002    17054 1
   17746    17003    17004 1
   17747    17003    17055 1
   17748    17003    17056 1
   17749    17004    17005 1
   17750    17004    17057 1
   17751    17004    17058 1
   17752    17005    17006 1
   17753    17005    17059 1
   17754    17005    17060 1
   17755    17006    17061 1
   17756    17006    17062 1
   17757    17006    17063 1
   17758    17007    17008 1
   17759    17007    17064 1
   17760    17007    17065 1
   17761    17008    17009 1
   17762    17008    17066 1
   17763    17008    17067 1
   17764    17009    17010 1
   17765    17009    17068 1
   17766    17009    17069 1
   17767    17010    17011 1
   17768    17010    17070 1
   17769    17010    17071 1
   17770    17011    17012 1
   17771    17011    17072 1
   17772    17011    17073 1
   17773    17012    17013 1
   17774    17012    17074 1
   17775    17012    17075 1
   17776    17013    17014 1
   17777    17013    17076 1
   17778    17013    17077 1
   17779    17014    17078 1
   17780    17014    17079 1
   17781    17014    17080 1
   17782    17081    17082 1
   17783    17081    17088 1
   17784    17081    17120 1
   17785    17082    17083 1
   17786    17082    17086 1
   17787    17083    17084 1
   17788    17083    17087 1
   17789    17084    17085 1
   17790    17085    17086 1
   17791    17085    17096 1
   17792    17086    17092 1
   17793    17087    17088 1
   17794    17087    17091 1
   17795    17088    17089 1
   17796    17089    17090 1
   17797    17089    17093 1
   17798    17090    17091 1
   17799    17094    17095 1
   17800    17094    17102 1
   17801    17095    17096 1
   17802    17095    17103 1
   17803    17096    17097 1
   17804    17097    17098 1
   17805    17097    17101 1
   17806    17098    17099 1
   17807    17099    17100 1
   17808    17100    17101 1
   17809    17101    17102 1
   17810    17102    17212 1
   17811    17104    17105 1
   17812    17104    17137 1
   17813    17104    17138 1
   17814    17104    17139 1
   17815    17105    17106 1
   17816    17105    17140 1
   17817    17105    17141 1
   17818    17106    17107 1
   17819    17106    17142 1
   17820    17106    17143 1
   17821    17107    17108 1
   17822    17107    17144 1
   17823    17107    17145 1
   17824    17108    17109 1
   17825    17108    17146 1
   17826    17108    17147 1
   17827    17109    17110 1
   17828    17109    17148 1
   17829    17109    17149 1
   17830    17110    17111 1
   17831    17110    17150 1
   17832    17110    17151 1
   17833    17111    17112 1
   17834    17111    17152 1
   17835    17111    17153 1
   17836    17112    17113 1
   17837    17112    17119 1
   17838    17112    17154 1
   17839    17113    17114 1
   17840    17113    17155 1
   17841    17113    17156 1
   17842    17114    17115 1
   17843    17114    17157 1
   17844    17114    17158 1
   17845    17115    17116 1
   17846    17115    17159 1
   17847    17115    17160 1
   17848    17116    17117 1
   17849    17116    17161 1
   17850    17116    17162 1
   17851    17117    17118 1
   17852    17117    17163 1
   17853    17117    17164 1
   17854    17118    17165 1
   17855    17118    17166 1
   17856    17118    17167 1
   17857    17119    17120 1
   17858    17119    17168 1
   17859    17119    17169 1
   17860    17120    17121 1
   17861    17121    17122 1
   17862    17121    17170 1
   17863    17121    17171 1
   17864    17122    17123 1
   17865    17122    17129 1
   17866    17122    17172 1
   17867    17123    17124 1
   17868    17123    17173 1
   17869    17123    17174 1
   17870    17124    17125 1
   17871    17124    17175 1
   17872    17124    17176 1
   17873    17125    17126 1
   17874    17125    17177 1
   17875    17125    17178 1
   17876    17126    17127 1
   17877    17126    17179 1
   17878    17126    17180 1
   17879    17127    17128 1
   17880    17127    17181 1
   17881    17127    17182 1
   17882    17128    17183 1
   17883    17128    17184 1
   17884    17128    17185 1
   17885    17129    17130 1
   17886    17129    17186 1
   17887    17129    17187 1
   17888    17130    17131 1
   17889    17130    17188 1
   17890    17130    17189 1
   17891    17131    17132 1
   17892    17131    17190 1
   17893    17131    17191 1
   17894    17132    17133 1
   17895    17132    17192 1
   17896    17132    17193 1
   17897    17133    17134 1
   17898    17133    17194 1
   17899    17133    17195 1
   17900    17134    17135 1
   17901    17134    17196 1
   17902    17134    17197 1
   17903    17135    17136 1
   17904    17135    17198 1
   17905    17135    17199 1
   17906    17136    17200 1
   17907    17136    17201 1
   17908    17136    17202 1
   17909    17203    17204 1
   17910    17203    17210 1
   17911    17203    17242 1
   17912    17204    17205 1
   17913    17204    17208 1
   17914    17205    17206 1
   17915    17205    17209 1
   17916    17206    17207 1
   17917    17207    17208 1
   17918    17207    17218 1
   17919    17208    17214 1
   17920    17209    17210 1
   17921    17209    17213 1
   17922    17210    17211 1
   17923    17211    17212 1
   17924    17211    17215 1
   17925    17212    17213 1
   17926    17216    17217 1
   17927    17216    17224 1
   17928    17217    17218 1
   17929    17217    17225 1
   17930    17218    17219 1
   17931    17219    17220 1
   17932    17219    17223 1
   17933    17220    17221 1
   17934    17221    17222 1
   17935    17222    17223 1
   17936    17223    17224 1
   17937    17224    17334 1
   17938    17226    17227 1
   17939    17226    17259 1
   17940    17226    17260 1
   17941    17226    17261 1
   17942    17227    17228 1
   17943    17227    17262 1
   17944    17227    17263 1
   17945    17228    17229 1
   17946    17228    17264 1
   17947    17228    17265 1
   17948    17229    17230 1
   17949    17229    17266 1
   17950    17229    17267 1
   17951    17230    17231 1
   17952    17230    17268 1
   17953    17230    17269 1
   17954    17231    17232 1
   17955    17231    17270 1
   17956    17231    17271 1
   17957    17232    17233 1
   17958    17232    17272 1
   17959    17232    17273 1
   17960    17233    17234 1
   17961    17233    17274 1
   17962    17233    17275 1
   17963    17234    17235 1
   17964    17234    17241 1
   17965    17234    17276 1
   17966    17235    17236 1
   17967    17235    17277 1
   17968    17235    17278 1
   17969    17236    17237 1
   17970    17236    17279 1
   17971    17236    17280 1
   17972    17237    17238 1
   17973    17237    17281 1
   17974    17237    17282 1
   17975    17238    17239 1
   17976    17238    17283 1
   17977    17238    17284 1
   17978    17239    17240 1
   17979    17239    17285 1
   17980    17239    17286 1
   17981    17240    17287 1
   17982    17240    17288 1
   17983    17240    17289 1
   17984    17241    17242 1
   17985    17241    17290 1
   17986    17241    17291 1
   17987    17242    17243 1
   17988    17243    17244 1
   17989    17243    17292 1
   17990    17243    17293 1
   17991    17244    17245 1
   17992    17244    17251 1
   17993    17244    17294 1
   17994    17245    17246 1
   17995    17245    17295 1
   17996    17245    17296 1
   17997    17246    17247 1
   17998    17246    17297 1
   17999    17246    17298 1
   18000    17247    17248 1
   18001    17247    17299 1
   18002    17247    17300 1
   18003    17248    17249 1
   18004    17248    17301 1
   18005    17248    17302 1
   18006    17249    17250 1
   18007    17249    17303 1
   18008    17249    17304 1
   18009    17250    17305 1
   18010    17250    17306 1
   18011    17250    17307 1
   18012    17251    17252 1
   18013    17251    17308 1
   18014    17251    17309 1
   18015    17252    17253 1
   18016    17252    17310 1
   18017    17252    17311 1
   18018    17253    17254 1
   18019    17253    17312 1
   18020    17253    17313 1
   18021    17254    17255 1
   18022    17254    17314 1
   18023    17254    17315 1
   18024    17255    17256 1
   18025    17255    17316 1
   18026    17255    17317 1
   18027    17256    17257 1
   18028    17256    17318 1
   18029    17256    17319 1
   18030    17257    17258 1
   18031    17257    17320 1
   18032    17257    17321 1
   18033    17258    17322 1
   18034    17258    17323 1
   18035    17258    17324 1
   18036    17325    17326 1
   18037    17325    17332 1
   18038    17325    17364 1
   18039    17326    17327 1
   18040    17326    17330 1
   18041    17327    17328 1
   18042    17327    17331 1
   18043    17328    17329 1
   18044    17329    17330 1
   18045    17329    17340 1
   18046    17330    17336 1
   18047    17331    17332 1
   18048    17331    17335 1
   18049    17332    17333 1
   18050    17333    17334 1
   18051    17333    17337 1
   18052    17334    17335 1
   18053    17338    17339 1
   18054    17338    17346 1
   18055    17339    17340 1
   18056    17339    17347 1
   18057    17340    17341 1
   18058    17341    17342 1
   18059    17341    17345 1
   18060    17342    17343 1
   18061    17343    17344 1
   18062    17344    17345 1
   18063    17345    17346 1
   18064    17346    17456 1
   18065    17348    17349 1
   18066    17348    17381 1
   18067    17348    17382 1
   18068    17348    17383 1
   18069    17349    17350 1
   18070    17349    17384 1
   18071    17349    17385 1
   18072    17350    17351 1
   18073    17350    17386 1
   18074    17350    17387 1
   18075    17351    17352 1
   18076    17351    17388 1
   18077    17351    17389 1
   18078    17352    17353 1
   18079    17352    17390 1
   18080    17352    17391 1
   18081    17353    17354 1
   18082    17353    17392 1
   18083    17353    17393 1
   18084    17354    17355 1
   18085    17354    17394 1
   18086    17354    17395 1
   18087    17355    17356 1
   18088    17355    17396 1
   18089    17355    17397 1
   18090    17356    17357 1
   18091    17356    17363 1
   18092    17356    17398 1
   18093    17357    17358 1
   18094    17357    17399 1
   18095    17357    17400 1
   18096    17358    17359 1
   18097    17358    17401 1
   18098    17358    17402 1
   18099    17359    17360 1
   18100    17359    17403 1
   18101    17359    17404 1
   18102    17360    17361 1
   18103    17360    17405 1
   18104    17360    17406 1
   18105    17361    17362 1
   18106    17361    17407 1
   18107    17361    17408 1
   18108    17362    17409 1
   18109    17362    17410 1
   18110    17362    17411 1
   18111    17363    17364 1
   18112    17363    17412 1
   18113    17363    17413 1
   18114    17364    17365 1
   18115    17365    17366 1
   18116    17365    17414 1
   18117    17365    17415 1
   18118    17366    17367 1
   18119    17366    17373 1
   18120    17366    17416 1
   18121    17367    17368 1
   18122    17367    17417 1
   18123    17367    17418 1
   18124    17368    17369 1
   18125    17368    17419 1
   18126    17368    17420 1
   18127    17369    17370 1
   18128    17369    17421 1
   18129    17369    17422 1
   18130    17370    17371 1
   18131    17370    17423 1
   18132    17370    17424 1
   18133    17371    17372 1
   18134    17371    17425 1
   18135    17371    17426 1
   18136    17372    17427 1
   18137    17372    17428 1
   18138    17372    17429 1
   18139    17373    17374 1
   18140    17373    17430 1
   18141    17373    17431 1
   18142    17374    17375 1
   18143    17374    17432 1
   18144    17374    17433 1
   18145    17375    17376 1
   18146    17375    17434 1
   18147    17375    17435 1
   18148    17376    17377 1
   18149    17376    17436 1
   18150    17376    17437 1
   18151    17377    17378 1
   18152    17377    17438 1
   18153    17377    17439 1
   18154    17378    17379 1
   18155    17378    17440 1
   18156    17378    17441 1
   18157    17379    17380 1
   18158    17379    17442 1
   18159    17379    17443 1
   18160    17380    17444 1
   18161    17380    17445 1
   18162    17380    17446 1
   18163    17447    17448 1
   18164    17447    17454 1
   18165    17447    17486 1
   18166    17448    17449 1
   18167    17448    17452 1
   18168    17449    17450 1
   18169    17449    17453 1
   18170    17450    17451 1
   18171    17451    17452 1
   18172    17451    17462 1
   18173    17452    17458 1
   18174    17453    17454 1
   18175    17453    17457 1
   18176    17454    17455 1
   18177    17455    17456 1
   18178    17455    17459 1
   18179    17456    17457 1
   18180    17460    17461 1
   18181    17460    17468 1
   18182    17461    17462 1
   18183    17461    17469 1
   18184    17462    17463 1
   18185    17463    17464 1
   18186    17463    17467 1
   18187    17464    17465 1
   18188    17465    17466 1
   18189    17466    17467 1
   18190    17467    17468 1
   18191    17468    17578 1
   18192    17470    17471 1
   18193    17470    17503 1
   18194    17470    17504 1
   18195    17470    17505 1
   18196    17471    17472 1
   18197    17471    17506 1
   18198    17471    17507 1
   18199    17472    17473 1
   18200    17472    17508 1
   18201    17472    17509 1
   18202    17473    17474 1
   18203    17473    17510 1
   18204    17473    17511 1
   18205    17474    17475 1
   18206    17474    17512 1
   18207    17474    17513 1
   18208    17475    17476 1
   18209    17475    17514 1
   18210    17475    17515 1
   18211    17476    17477 1
   18212    17476    17516 1
   18213    17476    17517 1
   18214    17477    17478 1
   18215    17477    17518 1
   18216    17477    17519 1
   18217    17478    17479 1
   18218    17478    17485 1
   18219    17478    17520 1
   18220    17479    17480 1
   18221    17479    17521 1
   18222    17479    17522 1
   18223    17480    17481 1
   18224    17480    17523 1
   18225    17480    17524 1
   18226    17481    17482 1
   18227    17481    17525 1
   18228    17481    17526 1
   18229    17482    17483 1
   18230    17482    17527 1
   18231    17482    17528 1
   18232    17483    17484 1
   18233    17483    17529 1
   18234    17483    17530 1
   18235    17484    17531 1
   18236    17484    17532 1
   18237    17484    17533 1
   18238    17485    17486 1
   18239    17485    17534 1
   18240    17485    17535 1
   18241    17486    17487 1
   18242    17487    17488 1
   18243    17487    17536 1
   18244    17487    17537 1
   18245    17488    17489 1
   18246    17488    17495 1
   18247    17488    17538 1
   18248    17489    17490 1
   18249    17489    17539 1
   18250    17489    17540 1
   18251    17490    17491 1
   18252    17490    17541 1
   18253    17490    17542 1
   18254    17491    17492 1
   18255    17491    17543 1
   18256    17491    17544 1
   18257    17492    17493 1
   18258    17492    17545 1
   18259    17492    17546 1
   18260    17493    17494 1
   18261    17493    17547 1
   18262    17493    17548 1
   18263    17494    17549 1
   18264    17494    17550 1
   18265    17494    17551 1
   18266    17495    17496 1
   18267    17495    17552 1
   18268    17495    17553 1
   18269    17496    17497 1
   18270    17496    17554 1
   18271    17496    17555 1
   18272    17497    17498 1
   18273    17497    17556 1
   18274    17497    17557 1
   18275    17498    17499 1
   18276    17498    17558 1
   18277    17498    17559 1
   18278    17499    17500 1
   18279    17499    17560 1
   18280    17499    17561 1
   18281    17500    17501 1
   18282    17500    17562 1
   18283    17500    17563 1
   18284    17501    17502 1
   18285    17501    17564 1
   18286    17501    17565 1
   18287    17502    17566 1
   18288    17502    17567 1
   18289    17502    17568 1
   18290    17569    17570 1
   18291    17569    17576 1
   18292    17569    17608 1
   18293    17570    17571 1
   18294    17570    17574 1
   18295    17571    17572 1
   18296    17571    17575 1
   18297    17572    17573 1
   18298    17573    17574 1
   18299    17573    17584 1
   18300    17574    17580 1
   18301    17575    17576 1
   18302    17575    17579 1
   18303    17576    17577 1
   18304    17577    17578 1
   18305    17577    17581 1
   18306    17578    17579 1
   18307    17582    17583 1
   18308    17582    17590 1
   18309    17583    17584 1
   18310    17583    17591 1
   18311    17584    17585 1
   18312    17585    17586 1
   18313    17585    17589 1
   18314    17586    17587 1
   18315    17587    17588 1
   18316    17588    17589 1
   18317    17589    17590 1
   18318    17590    17700 1
   18319    17592    17593 1
   18320    17592    17625 1
   18321    17592    17626 1
   18322    17592    17627 1
   18323    17593    17594 1
   18324    17593    17628 1
   18325    17593    17629 1
   18326    17594    17595 1
   18327    17594    17630 1
   18328    17594    17631 1
   18329    17595    17596 1
   18330    17595    17632 1
   18331    17595    17633 1
   18332    17596    17597 1
   18333    17596    17634 1
   18334    17596    17635 1
   18335    17597    17598 1
   18336    17597    17636 1
   18337    17597    17637 1
   18338    17598    17599 1
   18339    17598    17638 1
   18340    17598    17639 1
   18341    17599    17600 1
   18342    17599    17640 1
   18343    17599    17641 1
   18344    17600    17601 1
   18345    17600    17607 1
   18346    17600    17642 1
   18347    17601    17602 1
   18348    17601    17643 1
   18349    17601    17644 1
   18350    17602    17603 1
   18351    17602    17645 1
   18352    17602    17646 1
   18353    17603    17604 1
   18354    17603    17647 1
   18355    17603    17648 1
   18356    17604    17605 1
   18357    17604    17649 1
   18358    17604    17650 1
   18359    17605    17606 1
   18360    17605    17651 1
   18361    17605    17652 1
   18362    17606    17653 1
   18363    17606    17654 1
   18364    17606    17655 1
   18365    17607    17608 1
   18366    17607    17656 1
   18367    17607    17657 1
   18368    17608    17609 1
   18369    17609    17610 1
   18370    17609    17658 1
   18371    17609    17659 1
   18372    17610    17611 1
   18373    17610    17617 1
   18374    17610    17660 1
   18375    17611    17612 1
   18376    17611    17661 1
   18377    17611    17662 1
   18378    17612    17613 1
   18379    17612    17663 1
   18380    17612    17664 1
   18381    17613    17614 1
   18382    17613    17665 1
   18383    17613    17666 1
   18384    17614    17615 1
   18385    17614    17667 1
   18386    17614    17668 1
   18387    17615    17616 1
   18388    17615    17669 1
   18389    17615    17670 1
   18390    17616    17671 1
   18391    17616    17672 1
   18392    17616    17673 1
   18393    17617    17618 1
   18394    17617    17674 1
   18395    17617    17675 1
   18396    17618    17619 1
   18397    17618    17676 1
   18398    17618    17677 1
   18399    17619    17620 1
   18400    17619    17678 1
   18401    17619    17679 1
   18402    17620    17621 1
   18403    17620    17680 1
   18404    17620    17681 1
   18405    17621    17622 1
   18406    17621    17682 1
   18407    17621    17683 1
   18408    17622    17623 1
   18409    17622    17684 1
   18410    17622    17685 1
   18411    17623    17624 1
   18412    17623    17686 1
   18413    17623    17687 1
   18414    17624    17688 1
   18415    17624    17689 1
   18416    17624    17690 1
   18417    17691    17692 1
   18418    17691    17698 1
   18419    17691    17730 1
   18420    17692    17693 1
   18421    17692    17696 1
   18422    17693    17694 1
   18423    17693    17697 1
   18424    17694    17695 1
   18425    17695    17696 1
   18426    17695    17706 1
   18427    17696    17702 1
   18428    17697    17698 1
   18429    17697    17701 1
   18430    17698    17699 1
   18431    17699    17700 1
   18432    17699    17703 1
   18433    17700    17701 1
   18434    17704    17705 1
   18435    17704    17712 1
   18436    17705    17706 1
   18437    17705    17713 1
   18438    17706    17707 1
   18439    17707    17708 1
   18440    17707    17711 1
   18441    17708    17709 1
   18442    17709    17710 1
   18443    17710    17711 1
   18444    17711    17712 1
   18445    17712    17822 1
   18446    17714    17715 1
   18447    17714    17747 1
   18448    17714    17748 1
   18449    17714    17749 1
   18450    17715    17716 1
   18451    17715    17750 1
   18452    17715    17751 1
   18453    17716    17717 1
   18454    17716    17752 1
   18455    17716    17753 1
   18456    17717    17718 1
   18457    17717    17754 1
   18458    17717    17755 1
   18459    17718    17719 1
   18460    17718    17756 1
   18461    17718    17757 1
   18462    17719    17720 1
   18463    17719    17758 1
   18464    17719    17759 1
   18465    17720    17721 1
   18466    17720    17760 1
   18467    17720    17761 1
   18468    17721    17722 1
   18469    17721    17762 1
   18470    17721    17763 1
   18471    17722    17723 1
   18472    17722    17729 1
   18473    17722    17764 1
   18474    17723    17724 1
   18475    17723    17765 1
   18476    17723    17766 1
   18477    17724    17725 1
   18478    17724    17767 1
   18479    17724    17768 1
   18480    17725    17726 1
   18481    17725    17769 1
   18482    17725    17770 1
   18483    17726    17727 1
   18484    17726    17771 1
   18485    17726    17772 1
   18486    17727    17728 1
   18487    17727    17773 1
   18488    17727    17774 1
   18489    17728    17775 1
   18490    17728    17776 1
   18491    17728    17777 1
   18492    17729    17730 1
   18493    17729    17778 1
   18494    17729    17779 1
   18495    17730    17731 1
   18496    17731    17732 1
   18497    17731    17780 1
   18498    17731    17781 1
   18499    17732    17733 1
   18500    17732    17739 1
   18501    17732    17782 1
   18502    17733    17734 1
   18503    17733    17783 1
   18504    17733    17784 1
   18505    17734    17735 1
   18506    17734    17785 1
   18507    17734    17786 1
   18508    17735    17736 1
   18509    17735    17787 1
   18510    17735    17788 1
   18511    17736    17737 1
   18512    17736    17789 1
   18513    17736    17790 1
   18514    17737    17738 1
   18515    17737    17791 1
   18516    17737    17792 1
   18517    17738    17793 1
   18518    17738    17794 1
   18519    17738    17795 1
   18520    17739    17740 1
   18521    17739    17796 1
   18522    17739    17797 1
   18523    17740    17741 1
   18524    17740    17798 1
   18525    17740    17799 1
   18526    17741    17742 1
   18527    17741    17800 1
   18528    17741    17801 1
   18529    17742    17743 1
   18530    17742    17802 1
   18531    17742    17803 1
   18532    17743    17744 1
   18533    17743    17804 1
   18534    17743    17805 1
   18535    17744    17745 1
   18536    17744    17806 1
   18537    17744    17807 1
   18538    17745    17746 1
   18539    17745    17808 1
   18540    17745    17809 1
   18541    17746    17810 1
   18542    17746    17811 1
   18543    17746    17812 1
   18544    17813    17814 1
   18545    17813    17820 1
   18546    17813    17852 1
   18547    17814    17815 1
   18548    17814    17818 1
   18549    17815    17816 1
   18550    17815    17819 1
   18551    17816    17817 1
   18552    17817    17818 1
   18553    17817    17828 1
   18554    17818    17824 1
   18555    17819    17820 1
   18556    17819    17823 1
   18557    17820    17821 1
   18558    17821    17822 1
   18559    17821    17825 1
   18560    17822    17823 1
   18561    17826    17827 1
   18562    17826    17834 1
   18563    17827    17828 1
   18564    17827    17835 1
   18565    17828    17829 1
   18566    17829    17830 1
   18567    17829    17833 1
   18568    17830    17831 1
   18569    17831    17832 1
   18570    17832    17833 1
   18571    17833    17834 1
   18572    17834    17944 1
   18573    17836    17837 1
   18574    17836    17869 1
   18575    17836    17870 1
   18576    17836    17871 1
   18577    17837    17838 1
   18578    17837    17872 1
   18579    17837    17873 1
   18580    17838    17839 1
   18581    17838    17874 1
   18582    17838    17875 1
   18583    17839    17840 1
   18584    17839    17876 1
   18585    17839    17877 1
   18586    17840    17841 1
   18587    17840    17878 1
   18588    17840    17879 1
   18589    17841    17842 1
   18590    17841    17880 1
   18591    17841    17881 1
   18592    17842    17843 1
   18593    17842    17882 1
   18594    17842    17883 1
   18595    17843    17844 1
   18596    17843    17884 1
   18597    17843    17885 1
   18598    17844    17845 1
   18599    17844    17851 1
   18600    17844    17886 1
   18601    17845    17846 1
   18602    17845    17887 1
   18603    17845    17888 1
   18604    17846    17847 1
   18605    17846    17889 1
   18606    17846    17890 1
   18607    17847    17848 1
   18608    17847    17891 1
   18609    17847    17892 1
   18610    17848    17849 1
   18611    17848    17893 1
   18612    17848    17894 1
   18613    17849    17850 1
   18614    17849    17895 1
   18615    17849    17896 1
   18616    17850    17897 1
   18617    17850    17898 1
   18618    17850    17899 1
   18619    17851    17852 1
   18620    17851    17900 1
   18621    17851    17901 1
   18622    17852    17853 1
   18623    17853    17854 1
   18624    17853    17902 1
   18625    17853    17903 1
   18626    17854    17855 1
   18627    17854    17861 1
   18628    17854    17904 1
   18629    17855    17856 1
   18630    17855    17905 1
   18631    17855    17906 1
   18632    17856    17857 1
   18633    17856    17907 1
   18634    17856    17908 1
   18635    17857    17858 1
   18636    17857    17909 1
   18637    17857    17910 1
   18638    17858    17859 1
   18639    17858    17911 1
   18640    17858    17912 1
   18641    17859    17860 1
   18642    17859    17913 1
   18643    17859    17914 1
   18644    17860    17915 1
   18645    17860    17916 1
   18646    17860    17917 1
   18647    17861    17862 1
   18648    17861    17918 1
   18649    17861    17919 1
   18650    17862    17863 1
   18651    17862    17920 1
   18652    17862    17921 1
   18653    17863    17864 1
   18654    17863    17922 1
   18655    17863    17923 1
   18656    17864    17865 1
   18657    17864    17924 1
   18658    17864    17925 1
   18659    17865    17866 1
   18660    17865    17926 1
   18661    17865    17927 1
   18662    17866    17867 1
   18663    17866    17928 1
   18664    17866    17929 1
   18665    17867    17868 1
   18666    17867    17930 1
   18667    17867    17931 1
   18668    17868    17932 1
   18669    17868    17933 1
   18670    17868    17934 1
   18671    17935    17936 1
   18672    17935    17942 1
   18673    17935    17974 1
   18674    17936    17937 1
   18675    17936    17940 1
   18676    17937    17938 1
   18677    17937    17941 1
   18678    17938    17939 1
   18679    17939    17940 1
   18680    17939    17950 1
   18681    17940    17946 1
   18682    17941    17942 1
   18683    17941    17945 1
   18684    17942    17943 1
   18685    17943    17944 1
   18686    17943    17947 1
   18687    17944    17945 1
   18688    17948    17949 1
   18689    17948    17956 1
   18690    17949    17950 1
   18691    17949    17957 1
   18692    17950    17951 1
   18693    17951    17952 1
   18694    17951    17955 1
   18695    17952    17953 1
   18696    17953    17954 1
   18697    17954    17955 1
   18698    17955    17956 1
   18699    17956    18066 1
   18700    17958    17959 1
   18701    17958    17991 1
   18702    17958    17992 1
   18703    17958    17993 1
   18704    17959    17960 1
   18705    17959    17994 1
   18706    17959    17995 1
   18707    17960    17961 1
   18708    17960    17996 1
   18709    17960    17997 1
   18710    17961    17962 1
   18711    17961    17998 1
   18712    17961    17999 1
   18713    17962    17963 1
   18714    17962    18000 1
   18715    17962    18001 1
   18716    17963    17964 1
   18717    17963    18002 1
   18718    17963    18003 1
   18719    17964    17965 1
   18720    17964    18004 1
   18721    17964    18005 1
   18722    17965    17966 1
   18723    17965    18006 1
   18724    17965    18007 1
   18725    17966    17967 1
   18726    17966    17973 1
   18727    17966    18008 1
   18728    17967    17968 1
   18729    17967    18009 1
   18730    17967    18010 1
   18731    17968    17969 1
   18732    17968    18011 1
   18733    17968    18012 1
   18734    17969    17970 1
   18735    17969    18013 1
   18736    17969    18014 1
   18737    17970    17971 1
   18738    17970    18015 1
   18739    17970    18016 1
   18740    17971    17972 1
   18741    17971    18017 1
   18742    17971    18018 1
   18743    17972    18019 1
   18744    17972    18020 1
   18745    17972    18021 1
   18746    17973    17974 1
   18747    17973    18022 1
   18748    17973    18023 1
   18749    17974    17975 1
   18750    17975    17976 1
   18751    17975    18024 1
   18752    17975    18025 1
   18753    17976    17977 1
   18754    17976    17983 1
   18755    17976    18026 1
   18756    17977    17978 1
   18757    17977    18027 1
   18758    17977    18028 1
   18759    17978    17979 1
   18760    17978    18029 1
   18761    17978    18030 1
   18762    17979    17980 1
   18763    17979    18031 1
   18764    17979    18032 1
   18765    17980    17981 1
   18766    17980    18033 1
   18767    17980    18034 1
   18768    17981    17982 1
   18769    17981    18035 1
   18770    17981    18036 1
   18771    17982    18037 1
   18772    17982    18038 1
   18773    17982    18039 1
   18774    17983    17984 1
   18775    17983    18040 1
   18776    17983    18041 1
   18777    17984    17985 1
   18778    17984    18042 1
   18779    17984    18043 1
   18780    17985    17986 1
   18781    17985    18044 1
   18782    17985    18045 1
   18783    17986    17987 1
   18784    17986    18046 1
   18785    17986    18047 1
   18786    17987    17988 1
   18787    17987    18048 1
   18788    17987    18049 1
   18789    17988    17989 1
   18790    17988    18050 1
   18791    17988    18051 1
   18792    17989    17990 1
   18793    17989    18052 1
   18794    17989    18053 1
   18795    17990    18054 1
   18796    17990    18055 1
   18797    17990    18056 1
   18798    18057    18058 1
   18799    18057    18064 1
   18800    18057    18096 1
   18801    18058    18059 1
   18802    18058    18062 1
   18803    18059    18060 1
   18804    18059    18063 1
   18805    18060    18061 1
   18806    18061    18062 1
   18807    18061    18072 1
   18808    18062    18068 1
   18809    18063    18064 1
   18810    18063    18067 1
   18811    18064    18065 1
   18812    18065    18066 1
   18813    18065    18069 1
   18814    18066    18067 1
   18815    18070    18071 1
   18816    18070    18078 1
   18817    18071    18072 1
   18818    18071    18079 1
   18819    18072    18073 1
   18820    18073    18074 1
   18821    18073    18077 1
   18822    18074    18075 1
   18823    18075    18076 1
   18824    18076    18077 1
   18825    18077    18078 1
   18826    18078    18188 1
   18827    18080    18081 1
   18828    18080    18113 1
   18829    18080    18114 1
   18830    18080    18115 1
   18831    18081    18082 1
   18832    18081    18116 1
   18833    18081    18117 1
   18834    18082    18083 1
   18835    18082    18118 1
   18836    18082    18119 1
   18837    18083    18084 1
   18838    18083    18120 1
   18839    18083    18121 1
   18840    18084    18085 1
   18841    18084    18122 1
   18842    18084    18123 1
   18843    18085    18086 1
   18844    18085    18124 1
   18845    18085    18125 1
   18846    18086    18087 1
   18847    18086    18126 1
   18848    18086    18127 1
   18849    18087    18088 1
   18850    18087    18128 1
   18851    18087    18129 1
   18852    18088    18089 1
   18853    18088    18095 1
   18854    18088    18130 1
   18855    18089    18090 1
   18856    18089    18131 1
   18857    18089    18132 1
   18858    18090    18091 1
   18859    18090    18133 1
   18860    18090    18134 1
   18861    18091    18092 1
   18862    18091    18135 1
   18863    18091    18136 1
   18864    18092    18093 1
   18865    18092    18137 1
   18866    18092    18138 1
   18867    18093    18094 1
   18868    18093    18139 1
   18869    18093    18140 1
   18870    18094    18141 1
   18871    18094    18142 1
   18872    18094    18143 1
   18873    18095    18096 1
   18874    18095    18144 1
   18875    18095    18145 1
   18876    18096    18097 1
   18877    18097    18098 1
   18878    18097    18146 1
   18879    18097    18147 1
   18880    18098    18099 1
   18881    18098    18105 1
   18882    18098    18148 1
   18883    18099    18100 1
   18884    18099    18149 1
   18885    18099    18150 1
   18886    18100    18101 1
   18887    18100    18151 1
   18888    18100    18152 1
   18889    18101    18102 1
   18890    18101    18153 1
   18891    18101    18154 1
   18892    18102    18103 1
   18893    18102    18155 1
   18894    18102    18156 1
   18895    18103    18104 1
   18896    18103    18157 1
   18897    18103    18158 1
   18898    18104    18159 1
   18899    18104    18160 1
   18900    18104    18161 1
   18901    18105    18106 1
   18902    18105    18162 1
   18903    18105    18163 1
   18904    18106    18107 1
   18905    18106    18164 1
   18906    18106    18165 1
   18907    18107    18108 1
   18908    18107    18166 1
   18909    18107    18167 1
   18910    18108    18109 1
   18911    18108    18168 1
   18912    18108    18169 1
   18913    18109    18110 1
   18914    18109    18170 1
   18915    18109    18171 1
   18916    18110    18111 1
   18917    18110    18172 1
   18918    18110    18173 1
   18919    18111    18112 1
   18920    18111    18174 1
   18921    18111    18175 1
   18922    18112    18176 1
   18923    18112    18177 1
   18924    18112    18178 1
   18925    18179    18180 1
   18926    18179    18186 1
   18927    18179    18218 1
   18928    18180    18181 1
   18929    18180    18184 1
   18930    18181    18182 1
   18931    18181    18185 1
   18932    18182    18183 1
   18933    18183    18184 1
   18934    18183    18194 1
   18935    18184    18190 1
   18936    18185    18186 1
   18937    18185    18189 1
   18938    18186    18187 1
   18939    18187    18188 1
   18940    18187    18191 1
   18941    18188    18189 1
   18942    18192    18193 1
   18943    18192    18200 1
   18944    18193    18194 1
   18945    18193    18201 1
   18946    18194    18195 1
   18947    18195    18196 1
   18948    18195    18199 1
   18949    18196    18197 1
   18950    18197    18198 1
   18951    18198    18199 1
   18952    18199    18200 1
   18953    18200    18310 1
   18954    18202    18203 1
   18955    18202    18235 1
   18956    18202    18236 1
   18957    18202    18237 1
   18958    18203    18204 1
   18959    18203    18238 1
   18960    18203    18239 1
   18961    18204    18205 1
   18962    18204    18240 1
   18963    18204    18241 1
   18964    18205    18206 1
   18965    18205    18242 1
   18966    18205    18243 1
   18967    18206    18207 1
   18968    18206    18244 1
   18969    18206    18245 1
   18970    18207    18208 1
   18971    18207    18246 1
   18972    18207    18247 1
   18973    18208    18209 1
   18974    18208    18248 1
   18975    18208    18249 1
   18976    18209    18210 1
   18977    18209    18250 1
   18978    18209    18251 1
   18979    18210    18211 1
   18980    18210    18217 1
   18981    18210    18252 1
   18982    18211    18212 1
   18983    18211    18253 1
   18984    18211    18254 1
   18985    18212    18213 1
   18986    18212    18255 1
   18987    18212    18256 1
   18988    18213    18214 1
   18989    18213    18257 1
   18990    18213    18258 1
   18991    18214    18215 1
   18992    18214    18259 1
   18993    18214    18260 1
   18994    18215    18216 1
   18995    18215    18261 1
   18996    18215    18262 1
   18997    18216    18263 1
   18998    18216    18264 1
   18999    18216    18265 1
   19000    18217    18218 1
   19001    18217    18266 1
   19002    18217    18267 1
   19003    18218    18219 1
   19004    18219    18220 1
   19005    18219    18268 1
   19006    18219    18269 1
   19007    18220    18221 1
   19008    18220    18227 1
   19009    18220    18270 1
   19010    18221    18222 1
   19011    18221    18271 1
   19012    18221    18272 1
   19013    18222    18223 1
   19014    18222    18273 1
   19015    18222    18274 1
   19016    18223    18224 1
   19017    18223    18275 1
   19018    18223    18276 1
   19019    18224    18225 1
   19020    18224    18277 1
   19021    18224    18278 1
   19022    18225    18226 1
   19023    18225    18279 1
   19024    18225    18280 1
   19025    18226    18281 1
   19026    18226    18282 1
   19027    18226    18283 1
   19028    18227    18228 1
   19029    18227    18284 1
   19030    18227    18285 1
   19031    18228    18229 1
   19032    18228    18286 1
   19033    18228    18287 1
   19034    18229    18230 1
   19035    18229    18288 1
   19036    18229    18289 1
   19037    18230    18231 1
   19038    18230    18290 1
   19039    18230    18291 1
   19040    18231    18232 1
   19041    18231    18292 1
   19042    18231    18293 1
   19043    18232    18233 1
   19044    18232    18294 1
   19045    18232    18295 1
   19046    18233    18234 1
   19047    18233    18296 1
   19048    18233    18297 1
   19049    18234    18298 1
   19050    18234    18299 1
   19051    18234    18300 1
   19052    18301    18302 1
   19053    18301    18308 1
   19054    18301    18340 1
   19055    18302    18303 1
   19056    18302    18306 1
   19057    18303    18304 1
   19058    18303    18307 1
   19059    18304    18305 1
   19060    18305    18306 1
   19061    18305    18316 1
   19062    18306    18312 1
   19063    18307    18308 1
   19064    18307    18311 1
   19065    18308    18309 1
   19066    18309    18310 1
   19067    18309    18313 1
   19068    18310    18311 1
   19069    18314    18315 1
   19070    18314    18322 1
   19071    18315    18316 1
   19072    18315    18323 1
   19073    18316    18317 1
   19074    18317    18318 1
   19075    18317    18321 1
   19076    18318    18319 1
   19077    18319    18320 1
   19078    18320    18321 1
   19079    18321    18322 1
   19080    18322    18432 1
   19081    18324    18325 1
   19082    18324    18357 1
   19083    18324    18358 1
   19084    18324    18359 1
   19085    18325    18326 1
   19086    18325    18360 1
   19087    18325    18361 1
   19088    18326    18327 1
   19089    18326    18362 1
   19090    18326    18363 1
   19091    18327    18328 1
   19092    18327    18364 1
   19093    18327    18365 1
   19094    18328    18329 1
   19095    18328    18366 1
   19096    18328    18367 1
   19097    18329    18330 1
   19098    18329    18368 1
   19099    18329    18369 1
   19100    18330    18331 1
   19101    18330    18370 1
   19102    18330    18371 1
   19103    18331    18332 1
   19104    18331    18372 1
   19105    18331    18373 1
   19106    18332    18333 1
   19107    18332    18339 1
   19108    18332    18374 1
   19109    18333    18334 1
   19110    18333    18375 1
   19111    18333    18376 1
   19112    18334    18335 1
   19113    18334    18377 1
   19114    18334    18378 1
   19115    18335    18336 1
   19116    18335    18379 1
   19117    18335    18380 1
   19118    18336    18337 1
   19119    18336    18381 1
   19120    18336    18382 1
   19121    18337    18338 1
   19122    18337    18383 1
   19123    18337    18384 1
   19124    18338    18385 1
   19125    18338    18386 1
   19126    18338    18387 1
   19127    18339    18340 1
   19128    18339    18388 1
   19129    18339    18389 1
   19130    18340    18341 1
   19131    18341    18342 1
   19132    18341    18390 1
   19133    18341    18391 1
   19134    18342    18343 1
   19135    18342    18349 1
   19136    18342    18392 1
   19137    18343    18344 1
   19138    18343    18393 1
   19139    18343    18394 1
   19140    18344    18345 1
   19141    18344    18395 1
   19142    18344    18396 1
   19143    18345    18346 1
   19144    18345    18397 1
   19145    18345    18398 1
   19146    18346    18347 1
   19147    18346    18399 1
   19148    18346    18400 1
   19149    18347    18348 1
   19150    18347    18401 1
   19151    18347    18402 1
   19152    18348    18403 1
   19153    18348    18404 1
   19154    18348    18405 1
   19155    18349    18350 1
   19156    18349    18406 1
   19157    18349    18407 1
   19158    18350    18351 1
   19159    18350    18408 1
   19160    18350    18409 1
   19161    18351    18352 1
   19162    18351    18410 1
   19163    18351    18411 1
   19164    18352    18353 1
   19165    18352    18412 1
   19166    18352    18413 1
   19167    18353    18354 1
   19168    18353    18414 1
   19169    18353    18415 1
   19170    18354    18355 1
   19171    18354    18416 1
   19172    18354    18417 1
   19173    18355    18356 1
   19174    18355    18418 1
   19175    18355    18419 1
   19176    18356    18420 1
   19177    18356    18421 1
   19178    18356    18422 1
   19179    18423    18424 1
   19180    18423    18430 1
   19181    18423    18462 1
   19182    18424    18425 1
   19183    18424    18428 1
   19184    18425    18426 1
   19185    18425    18429 1
   19186    18426    18427 1
   19187    18427    18428 1
   19188    18427    18438 1
   19189    18428    18434 1
   19190    18429    18430 1
   19191    18429    18433 1
   19192    18430    18431 1
   19193    18431    18432 1
   19194    18431    18435 1
   19195    18432    18433 1
   19196    18436    18437 1
   19197    18436    18444 1
   19198    18437    18438 1
   19199    18437    18445 1
   19200    18438    18439 1
   19201    18439    18440 1
   19202    18439    18443 1
   19203    18440    18441 1
   19204    18441    18442 1
   19205    18442    18443 1
   19206    18443    18444 1
   19207    18444    18554 1
   19208    18446    18447 1
   19209    18446    18479 1
   19210    18446    18480 1
   19211    18446    18481 1
   19212    18447    18448 1
   19213    18447    18482 1
   19214    18447    18483 1
   19215    18448    18449 1
   19216    18448    18484 1
   19217    18448    18485 1
   19218    18449    18450 1
   19219    18449    18486 1
   19220    18449    18487 1
   19221    18450    18451 1
   19222    18450    18488 1
   19223    18450    18489 1
   19224    18451    18452 1
   19225    18451    18490 1
   19226    18451    18491 1
   19227    18452    18453 1
   19228    18452    18492 1
   19229    18452    18493 1
   19230    18453    18454 1
   19231    18453    18494 1
   19232    18453    18495 1
   19233    18454    18455 1
   19234    18454    18461 1
   19235    18454    18496 1
   19236    18455    18456 1
   19237    18455    18497 1
   19238    18455    18498 1
   19239    18456    18457 1
   19240    18456    18499 1
   19241    18456    18500 1
   19242    18457    18458 1
   19243    18457    18501 1
   19244    18457    18502 1
   19245    18458    18459 1
   19246    18458    18503 1
   19247    18458    18504 1
   19248    18459    18460 1
   19249    18459    18505 1
   19250    18459    18506 1
   19251    18460    18507 1
   19252    18460    18508 1
   19253    18460    18509 1
   19254    18461    18462 1
   19255    18461    18510 1
   19256    18461    18511 1
   19257    18462    18463 1
   19258    18463    18464 1
   19259    18463    18512 1
   19260    18463    18513 1
   19261    18464    18465 1
   19262    18464    18471 1
   19263    18464    18514 1
   19264    18465    18466 1
   19265    18465    18515 1
   19266    18465    18516 1
   19267    18466    18467 1
   19268    18466    18517 1
   19269    18466    18518 1
   19270    18467    18468 1
   19271    18467    18519 1
   19272    18467    18520 1
   19273    18468    18469 1
   19274    18468    18521 1
   19275    18468    18522 1
   19276    18469    18470 1
   19277    18469    18523 1
   19278    18469    18524 1
   19279    18470    18525 1
   19280    18470    18526 1
   19281    18470    18527 1
   19282    18471    18472 1
   19283    18471    18528 1
   19284    18471    18529 1
   19285    18472    18473 1
   19286    18472    18530 1
   19287    18472    18531 1
   19288    18473    18474 1
   19289    18473    18532 1
   19290    18473    18533 1
   19291    18474    18475 1
   19292    18474    18534 1
   19293    18474    18535 1
   19294    18475    18476 1
   19295    18475    18536 1
   19296    18475    18537 1
   19297    18476    18477 1
   19298    18476    18538 1
   19299    18476    18539 1
   19300    18477    18478 1
   19301    18477    18540 1
   19302    18477    18541 1
   19303    18478    18542 1
   19304    18478    18543 1
   19305    18478    18544 1
   19306    18545    18546 1
   19307    18545    18552 1
   19308    18545    18584 1
   19309    18546    18547 1
   19310    18546    18550 1
   19311    18547    18548 1
   19312    18547    18551 1
   19313    18548    18549 1
   19314    18549    18550 1
   19315    18549    18560 1
   19316    18550    18556 1
   19317    18551    18552 1
   19318    18551    18555 1
   19319    18552    18553 1
   19320    18553    18554 1
   19321    18553    18557 1
   19322    18554    18555 1
   19323    18558    18559 1
   19324    18558    18566 1
   19325    18559    18560 1
   19326    18559    18567 1
   19327    18560    18561 1
   19328    18561    18562 1
   19329    18561    18565 1
   19330    18562    18563 1
   19331    18563    18564 1
   19332    18564    18565 1
   19333    18565    18566 1
   19334    18566    18676 1
   19335    18568    18569 1
   19336    18568    18601 1
   19337    18568    18602 1
   19338    18568    18603 1
   19339    18569    18570 1
   19340    18569    18604 1
   19341    18569    18605 1
   19342    18570    18571 1
   19343    18570    18606 1
   19344    18570    18607 1
   19345    18571    18572 1
   19346    18571    18608 1
   19347    18571    18609 1
   19348    18572    18573 1
   19349    18572    18610 1
   19350    18572    18611 1
   19351    18573    18574 1
   19352    18573    18612 1
   19353    18573    18613 1
   19354    18574    18575 1
   19355    18574    18614 1
   19356    18574    18615 1
   19357    18575    18576 1
   19358    18575    18616 1
   19359    18575    18617 1
   19360    18576    18577 1
   19361    18576    18583 1
   19362    18576    18618 1
   19363    18577    18578 1
   19364    18577    18619 1
   19365    18577    18620 1
   19366    18578    18579 1
   19367    18578    18621 1
   19368    18578    18622 1
   19369    18579    18580 1
   19370    18579    18623 1
   19371    18579    18624 1
   19372    18580    18581 1
   19373    18580    18625 1
   19374    18580    18626 1
   19375    18581    18582 1
   19376    18581    18627 1
   19377    18581    18628 1
   19378    18582    18629 1
   19379    18582    18630 1
   19380    18582    18631 1
   19381    18583    18584 1
   19382    18583    18632 1
   19383    18583    18633 1
   19384    18584    18585 1
   19385    18585    18586 1
   19386    18585    18634 1
   19387    18585    18635 1
   19388    18586    18587 1
   19389    18586    18593 1
   19390    18586    18636 1
   19391    18587    18588 1
   19392    18587    18637 1
   19393    18587    18638 1
   19394    18588    18589 1
   19395    18588    18639 1
   19396    18588    18640 1
   19397    18589    18590 1
   19398    18589    18641 1
   19399    18589    18642 1
   19400    18590    18591 1
   19401    18590    18643 1
   19402    18590    18644 1
   19403    18591    18592 1
   19404    18591    18645 1
   19405    18591    18646 1
   19406    18592    18647 1
   19407    18592    18648 1
   19408    18592    18649 1
   19409    18593    18594 1
   19410    18593    18650 1
   19411    18593    18651 1
   19412    18594    18595 1
   19413    18594    18652 1
   19414    18594    18653 1
   19415    18595    18596 1
   19416    18595    18654 1
   19417    18595    18655 1
   19418    18596    18597 1
   19419    18596    18656 1
   19420    18596    18657 1
   19421    18597    18598 1
   19422    18597    18658 1
   19423    18597    18659 1
   19424    18598    18599 1
   19425    18598    18660 1
   19426    18598    18661 1
   19427    18599    18600 1
   19428    18599    18662 1
   19429    18599    18663 1
   19430    18600    18664 1
   19431    18600    18665 1
   19432    18600    18666 1
   19433    18667    18668 1
   19434    18667    18674 1
   19435    18667    18706 1
   19436    18668    18669 1
   19437    18668    18672 1
   19438    18669    18670 1
   19439    18669    18673 1
   19440    18670    18671 1
   19441    18671    18672 1
   19442    18671    18682 1
   19443    18672    18678 1
   19444    18673    18674 1
   19445    18673    18677 1
   19446    18674    18675 1
   19447    18675    18676 1
   19448    18675    18679 1
   19449    18676    18677 1
   19450    18680    18681 1
   19451    18680    18688 1
   19452    18681    18682 1
   19453    18681    18689 1
   19454    18682    18683 1
   19455    18683    18684 1
   19456    18683    18687 1
   19457    18684    18685 1
   19458    18685    18686 1
   19459    18686    18687 1
   19460    18687    18688 1
   19461    18688    18798 1
   19462    18690    18691 1
   19463    18690    18723 1
   19464    18690    18724 1
   19465    18690    18725 1
   19466    18691    18692 1
   19467    18691    18726 1
   19468    18691    18727 1
   19469    18692    18693 1
   19470    18692    18728 1
   19471    18692    18729 1
   19472    18693    18694 1
   19473    18693    18730 1
   19474    18693    18731 1
   19475    18694    18695 1
   19476    18694    18732 1
   19477    18694    18733 1
   19478    18695    18696 1
   19479    18695    18734 1
   19480    18695    18735 1
   19481    18696    18697 1
   19482    18696    18736 1
   19483    18696    18737 1
   19484    18697    18698 1
   19485    18697    18738 1
   19486    18697    18739 1
   19487    18698    18699 1
   19488    18698    18705 1
   19489    18698    18740 1
   19490    18699    18700 1
   19491    18699    18741 1
   19492    18699    18742 1
   19493    18700    18701 1
   19494    18700    18743 1
   19495    18700    18744 1
   19496    18701    18702 1
   19497    18701    18745 1
   19498    18701    18746 1
   19499    18702    18703 1
   19500    18702    18747 1
   19501    18702    18748 1
   19502    18703    18704 1
   19503    18703    18749 1
   19504    18703    18750 1
   19505    18704    18751 1
   19506    18704    18752 1
   19507    18704    18753 1
   19508    18705    18706 1
   19509    18705    18754 1
   19510    18705    18755 1
   19511    18706    18707 1
   19512    18707    18708 1
   19513    18707    18756 1
   19514    18707    18757 1
   19515    18708    18709 1
   19516    18708    18715 1
   19517    18708    18758 1
   19518    18709    18710 1
   19519    18709    18759 1
   19520    18709    18760 1
   19521    18710    18711 1
   19522    18710    18761 1
   19523    18710    18762 1
   19524    18711    18712 1
   19525    18711    18763 1
   19526    18711    18764 1
   19527    18712    18713 1
   19528    18712    18765 1
   19529    18712    18766 1
   19530    18713    18714 1
   19531    18713    18767 1
   19532    18713    18768 1
   19533    18714    18769 1
   19534    18714    18770 1
   19535    18714    18771 1
   19536    18715    18716 1
   19537    18715    18772 1
   19538    18715    18773 1
   19539    18716    18717 1
   19540    18716    18774 1
   19541    18716    18775 1
   19542    18717    18718 1
   19543    18717    18776 1
   19544    18717    18777 1
   19545    18718    18719 1
   19546    18718    18778 1
   19547    18718    18779 1
   19548    18719    18720 1
   19549    18719    18780 1
   19550    18719    18781 1
   19551    18720    18721 1
   19552    18720    18782 1
   19553    18720    18783 1
   19554    18721    18722 1
   19555    18721    18784 1
   19556    18721    18785 1
   19557    18722    18786 1
   19558    18722    18787 1
   19559    18722    18788 1
   19560    18789    18790 1
   19561    18789    18796 1
   19562    18789    18828 1
   19563    18790    18791 1
   19564    18790    18794 1
   19565    18791    18792 1
   19566    18791    18795 1
   19567    18792    18793 1
   19568    18793    18794 1
   19569    18793    18804 1
   19570    18794    18800 1
   19571    18795    18796 1
   19572    18795    18799 1
   19573    18796    18797 1
   19574    18797    18798 1
   19575    18797    18801 1
   19576    18798    18799 1
   19577    18802    18803 1
   19578    18802    18810 1
   19579    18803    18804 1
   19580    18803    18811 1
   19581    18804    18805 1
   19582    18805    18806 1
   19583    18805    18809 1
   19584    18806    18807 1
   19585    18807    18808 1
   19586    18808    18809 1
   19587    18809    18810 1
   19588    18810    18920 1
   19589    18812    18813 1
   19590    18812    18845 1
   19591    18812    18846 1
   19592    18812    18847 1
   19593    18813    18814 1
   19594    18813    18848 1
   19595    18813    18849 1
   19596    18814    18815 1
   19597    18814    18850 1
   19598    18814    18851 1
   19599    18815    18816 1
   19600    18815    18852 1
   19601    18815    18853 1
   19602    18816    18817 1
   19603    18816    18854 1
   19604    18816    18855 1
   19605    18817    18818 1
   19606    18817    18856 1
   19607    18817    18857 1
   19608    18818    18819 1
   19609    18818    18858 1
   19610    18818    18859 1
   19611    18819    18820 1
   19612    18819    18860 1
   19613    18819    18861 1
   19614    18820    18821 1
   19615    18820    18827 1
   19616    18820    18862 1
   19617    18821    18822 1
   19618    18821    18863 1
   19619    18821    18864 1
   19620    18822    18823 1
   19621    18822    18865 1
   19622    18822    18866 1
   19623    18823    18824 1
   19624    18823    18867 1
   19625    18823    18868 1
   19626    18824    18825 1
   19627    18824    18869 1
   19628    18824    18870 1
   19629    18825    18826 1
   19630    18825    18871 1
   19631    18825    18872 1
   19632    18826    18873 1
   19633    18826    18874 1
   19634    18826    18875 1
   19635    18827    18828 1
   19636    18827    18876 1
   19637    18827    18877 1
   19638    18828    18829 1
   19639    18829    18830 1
   19640    18829    18878 1
   19641    18829    18879 1
   19642    18830    18831 1
   19643    18830    18837 1
   19644    18830    18880 1
   19645    18831    18832 1
   19646    18831    18881 1
   19647    18831    18882 1
   19648    18832    18833 1
   19649    18832    18883 1
   19650    18832    18884 1
   19651    18833    18834 1
   19652    18833    18885 1
   19653    18833    18886 1
   19654    18834    18835 1
   19655    18834    18887 1
   19656    18834    18888 1
   19657    18835    18836 1
   19658    18835    18889 1
   19659    18835    18890 1
   19660    18836    18891 1
   19661    18836    18892 1
   19662    18836    18893 1
   19663    18837    18838 1
   19664    18837    18894 1
   19665    18837    18895 1
   19666    18838    18839 1
   19667    18838    18896 1
   19668    18838    18897 1
   19669    18839    18840 1
   19670    18839    18898 1
   19671    18839    18899 1
   19672    18840    18841 1
   19673    18840    18900 1
   19674    18840    18901 1
   19675    18841    18842 1
   19676    18841    18902 1
   19677    18841    18903 1
   19678    18842    18843 1
   19679    18842    18904 1
   19680    18842    18905 1
   19681    18843    18844 1
   19682    18843    18906 1
   19683    18843    18907 1
   19684    18844    18908 1
   19685    18844    18909 1
   19686    18844    18910 1
   19687    18911    18912 1
   19688    18911    18918 1
   19689    18911    18950 1
   19690    18912    18913 1
   19691    18912    18916 1
   19692    18913    18914 1
   19693    18913    18917 1
   19694    18914    18915 1
   19695    18915    18916 1
   19696    18915    18926 1
   19697    18916    18922 1
   19698    18917    18918 1
   19699    18917    18921 1
   19700    18918    18919 1
   19701    18919    18920 1
   19702    18919    18923 1
   19703    18920    18921 1
   19704    18924    18925 1
   19705    18924    18932 1
   19706    18925    18926 1
   19707    18925    18933 1
   19708    18926    18927 1
   19709    18927    18928 1
   19710    18927    18931 1
   19711    18928    18929 1
   19712    18929    18930 1
   19713    18930    18931 1
   19714    18931    18932 1
   19715    18932    19042 1
   19716    18934    18935 1
   19717    18934    18967 1
   19718    18934    18968 1
   19719    18934    18969 1
   19720    18935    18936 1
   19721    18935    18970 1
   19722    18935    18971 1
   19723    18936    18937 1
   19724    18936    18972 1
   19725    18936    18973 1
   19726    18937    18938 1
   19727    18937    18974 1
   19728    18937    18975 1
   19729    18938    18939 1
   19730    18938    18976 1
   19731    18938    18977 1
   19732    18939    18940 1
   19733    18939    18978 1
   19734    18939    18979 1
   19735    18940    18941 1
   19736    18940    18980 1
   19737    18940    18981 1
   19738    18941    18942 1
   19739    18941    18982 1
   19740    18941    18983 1
   19741    18942    18943 1
   19742    18942    18949 1
   19743    18942    18984 1
   19744    18943    18944 1
   19745    18943    18985 1
   19746    18943    18986 1
   19747    18944    18945 1
   19748    18944    18987 1
   19749    18944    18988 1
   19750    18945    18946 1
   19751    18945    18989 1
   19752    18945    18990 1
   19753    18946    18947 1
   19754    18946    18991 1
   19755    18946    18992 1
   19756    18947    18948 1
   19757    18947    18993 1
   19758    18947    18994 1
   19759    18948    18995 1
   19760    18948    18996 1
   19761    18948    18997 1
   19762    18949    18950 1
   19763    18949    18998 1
   19764    18949    18999 1
   19765    18950    18951 1
   19766    18951    18952 1
   19767    18951    19000 1
   19768    18951    19001 1
   19769    18952    18953 1
   19770    18952    18959 1
   19771    18952    19002 1
   19772    18953    18954 1
   19773    18953    19003 1
   19774    18953    19004 1
   19775    18954    18955 1
   19776    18954    19005 1
   19777    18954    19006 1
   19778    18955    18956 1
   19779    18955    19007 1
   19780    18955    19008 1
   19781    18956    18957 1
   19782    18956    19009 1
   19783    18956    19010 1
   19784    18957    18958 1
   19785    18957    19011 1
   19786    18957    19012 1
   19787    18958    19013 1
   19788    18958    19014 1
   19789    18958    19015 1
   19790    18959    18960 1
   19791    18959    19016 1
   19792    18959    19017 1
   19793    18960    18961 1
   19794    18960    19018 1
   19795    18960    19019 1
   19796    18961    18962 1
   19797    18961    19020 1
   19798    18961    19021 1
   19799    18962    18963 1
   19800    18962    19022 1
   19801    18962    19023 1
   19802    18963    18964 1
   19803    18963    19024 1
   19804    18963    19025 1
   19805    18964    18965 1
   19806    18964    19026 1
   19807    18964    19027 1
   19808    18965    18966 1
   19809    18965    19028 1
   19810    18965    19029 1
   19811    18966    19030 1
   19812    18966    19031 1
   19813    18966    19032 1
   19814    19033    19034 1
   19815    19033    19040 1
   19816    19033    19072 1
   19817    19034    19035 1
   19818    19034    19038 1
   19819    19035    19036 1
   19820    19035    19039 1
   19821    19036    19037 1
   19822    19037    19038 1
   19823    19037    19048 1
   19824    19038    19044 1
   19825    19039    19040 1
   19826    19039    19043 1
   19827    19040    19041 1
   19828    19041    19042 1
   19829    19041    19045 1
   19830    19042    19043 1
   19831    19046    19047 1
   19832    19046    19054 1
   19833    19047    19048 1
   19834    19047    19055 1
   19835    19048    19049 1
   19836    19049    19050 1
   19837    19049    19053 1
   19838    19050    19051 1
   19839    19051    19052 1
   19840    19052    19053 1
   19841    19053    19054 1
   19842    19054    19164 1
   19843    19056    19057 1
   19844    19056    19089 1
   19845    19056    19090 1
   19846    19056    19091 1
   19847    19057    19058 1
   19848    19057    19092 1
   19849    19057    19093 1
   19850    19058    19059 1
   19851    19058    19094 1
   19852    19058    19095 1
   19853    19059    19060 1
   19854    19059    19096 1
   19855    19059    19097 1
   19856    19060    19061 1
   19857    19060    19098 1
   19858    19060    19099 1
   19859    19061    19062 1
   19860    19061    19100 1
   19861    19061    19101 1
   19862    19062    19063 1
   19863    19062    19102 1
   19864    19062    19103 1
   19865    19063    19064 1
   19866    19063    19104 1
   19867    19063    19105 1
   19868    19064    19065 1
   19869    19064    19071 1
   19870    19064    19106 1
   19871    19065    19066 1
   19872    19065    19107 1
   19873    19065    19108 1
   19874    19066    19067 1
   19875    19066    19109 1
   19876    19066    19110 1
   19877    19067    19068 1
   19878    19067    19111 1
   19879    19067    19112 1
   19880    19068    19069 1
   19881    19068    19113 1
   19882    19068    19114 1
   19883    19069    19070 1
   19884    19069    19115 1
   19885    19069    19116 1
   19886    19070    19117 1
   19887    19070    19118 1
   19888    19070    19119 1
   19889    19071    19072 1
   19890    19071    19120 1
   19891    19071    19121 1
   19892    19072    19073 1
   19893    19073    19074 1
   19894    19073    19122 1
   19895    19073    19123 1
   19896    19074    19075 1
   19897    19074    19081 1
   19898    19074    19124 1
   19899    19075    19076 1
   19900    19075    19125 1
   19901    19075    19126 1
   19902    19076    19077 1
   19903    19076    19127 1
   19904    19076    19128 1
   19905    19077    19078 1
   19906    19077    19129 1
   19907    19077    19130 1
   19908    19078    19079 1
   19909    19078    19131 1
   19910    19078    19132 1
   19911    19079    19080 1
   19912    19079    19133 1
   19913    19079    19134 1
   19914    19080    19135 1
   19915    19080    19136 1
   19916    19080    19137 1
   19917    19081    19082 1
   19918    19081    19138 1
   19919    19081    19139 1
   19920    19082    19083 1
   19921    19082    19140 1
   19922    19082    19141 1
   19923    19083    19084 1
   19924    19083    19142 1
   19925    19083    19143 1
   19926    19084    19085 1
   19927    19084    19144 1
   19928    19084    19145 1
   19929    19085    19086 1
   19930    19085    19146 1
   19931    19085    19147 1
   19932    19086    19087 1
   19933    19086    19148 1
   19934    19086    19149 1
   19935    19087    19088 1
   19936    19087    19150 1
   19937    19087    19151 1
   19938    19088    19152 1
   19939    19088    19153 1
   19940    19088    19154 1
   19941    19155    19156 1
   19942    19155    19162 1
   19943    19155    19194 1
   19944    19156    19157 1
   19945    19156    19160 1
   19946    19157    19158 1
   19947    19157    19161 1
   19948    19158    19159 1
   19949    19159    19160 1
   19950    19159    19170 1
   19951    19160    19166 1
   19952    19161    19162 1
   19953    19161    19165 1
   19954    19162    19163 1
   19955    19163    19164 1
   19956    19163    19167 1
   19957    19164    19165 1
   19958    19168    19169 1
   19959    19168    19176 1
   19960    19169    19170 1
   19961    19169    19177 1
   19962    19170    19171 1
   19963    19171    19172 1
   19964    19171    19175 1
   19965    19172    19173 1
   19966    19173    19174 1
   19967    19174    19175 1
   19968    19175    19176 1
   19969    19176    19286 1
   19970    19178    19179 1
   19971    19178    19211 1
   19972    19178    19212 1
   19973    19178    19213 1
   19974    19179    19180 1
   19975    19179    19214 1
   19976    19179    19215 1
   19977    19180    19181 1
   19978    19180    19216 1
   19979    19180    19217 1
   19980    19181    19182 1
   19981    19181    19218 1
   19982    19181    19219 1
   19983    19182    19183 1
   19984    19182    19220 1
   19985    19182    19221 1
   19986    19183    19184 1
   19987    19183    19222 1
   19988    19183    19223 1
   19989    19184    19185 1
   19990    19184    19224 1
   19991    19184    19225 1
   19992    19185    19186 1
   19993    19185    19226 1
   19994    19185    19227 1
   19995    19186    19187 1
   19996    19186    19193 1
   19997    19186    19228 1
   19998    19187    19188 1
   19999    19187    19229 1
   20000    19187    19230 1
   20001    19188    19189 1
   20002    19188    19231 1
   20003    19188    19232 1
   20004    19189    19190 1
   20005    19189    19233 1
   20006    19189    19234 1
   20007    19190    19191 1
   20008    19190    19235 1
   20009    19190    19236 1
   20010    19191    19192 1
   20011    19191    19237 1
   20012    19191    19238 1
   20013    19192    19239 1
   20014    19192    19240 1
   20015    19192    19241 1
   20016    19193    19194 1
   20017    19193    19242 1
   20018    19193    19243 1
   20019    19194    19195 1
   20020    19195    19196 1
   20021    19195    19244 1
   20022    19195    19245 1
   20023    19196    19197 1
   20024    19196    19203 1
   20025    19196    19246 1
   20026    19197    19198 1
   20027    19197    19247 1
   20028    19197    19248 1
   20029    19198    19199 1
   20030    19198    19249 1
   20031    19198    19250 1
   20032    19199    19200 1
   20033    19199    19251 1
   20034    19199    19252 1
   20035    19200    19201 1
   20036    19200    19253 1
   20037    19200    19254 1
   20038    19201    19202 1
   20039    19201    19255 1
   20040    19201    19256 1
   20041    19202    19257 1
   20042    19202    19258 1
   20043    19202    19259 1
   20044    19203    19204 1
   20045    19203    19260 1
   20046    19203    19261 1
   20047    19204    19205 1
   20048    19204    19262 1
   20049    19204    19263 1
   20050    19205    19206 1
   20051    19205    19264 1
   20052    19205    19265 1
   20053    19206    19207 1
   20054    19206    19266 1
   20055    19206    19267 1
   20056    19207    19208 1
   20057    19207    19268 1
   20058    19207    19269 1
   20059    19208    19209 1
   20060    19208    19270 1
   20061    19208    19271 1
   20062    19209    19210 1
   20063    19209    19272 1
   20064    19209    19273 1
   20065    19210    19274 1
   20066    19210    19275 1
   20067    19210    19276 1
   20068    19277    19278 1
   20069    19277    19284 1
   20070    19277    19316 1
   20071    19278    19279 1
   20072    19278    19282 1
   20073    19279    19280 1
   20074    19279    19283 1
   20075    19280    19281 1
   20076    19281    19282 1
   20077    19281    19292 1
   20078    19282    19288 1
   20079    19283    19284 1
   20080    19283    19287 1
   20081    19284    19285 1
   20082    19285    19286 1
   20083    19285    19289 1
   20084    19286    19287 1
   20085    19290    19291 1
   20086    19290    19298 1
   20087    19291    19292 1
   20088    19291    19299 1
   20089    19292    19293 1
   20090    19293    19294 1
   20091    19293    19297 1
   20092    19294    19295 1
   20093    19295    19296 1
   20094    19296    19297 1
   20095    19297    19298 1
   20096    19298    19408 1
   20097    19300    19301 1
   20098    19300    19333 1
   20099    19300    19334 1
   20100    19300    19335 1
   20101    19301    19302 1
   20102    19301    19336 1
   20103    19301    19337 1
   20104    19302    19303 1
   20105    19302    19338 1
   20106    19302    19339 1
   20107    19303    19304 1
   20108    19303    19340 1
   20109    19303    19341 1
   20110    19304    19305 1
   20111    19304    19342 1
   20112    19304    19343 1
   20113    19305    19306 1
   20114    19305    19344 1
   20115    19305    19345 1
   20116    19306    19307 1
   20117    19306    19346 1
   20118    19306    19347 1
   20119    19307    19308 1
   20120    19307    19348 1
   20121    19307    19349 1
   20122    19308    19309 1
   20123    19308    19315 1
   20124    19308    19350 1
   20125    19309    19310 1
   20126    19309    19351 1
   20127    19309    19352 1
   20128    19310    19311 1
   20129    19310    19353 1
   20130    19310    19354 1
   20131    19311    19312 1
   20132    19311    19355 1
   20133    19311    19356 1
   20134    19312    19313 1
   20135    19312    19357 1
   20136    19312    19358 1
   20137    19313    19314 1
   20138    19313    19359 1
   20139    19313    19360 1
   20140    19314    19361 1
   20141    19314    19362 1
   20142    19314    19363 1
   20143    19315    19316 1
   20144    19315    19364 1
   20145    19315    19365 1
   20146    19316    19317 1
   20147    19317    19318 1
   20148    19317    19366 1
   20149    19317    19367 1
   20150    19318    19319 1
   20151    19318    19325 1
   20152    19318    19368 1
   20153    19319    19320 1
   20154    19319    19369 1
   20155    19319    19370 1
   20156    19320    19321 1
   20157    19320    19371 1
   20158    19320    19372 1
   20159    19321    19322 1
   20160    19321    19373 1
   20161    19321    19374 1
   20162    19322    19323 1
   20163    19322    19375 1
   20164    19322    19376 1
   20165    19323    19324 1
   20166    19323    19377 1
   20167    19323    19378 1
   20168    19324    19379 1
   20169    19324    19380 1
   20170    19324    19381 1
   20171    19325    19326 1
   20172    19325    19382 1
   20173    19325    19383 1
   20174    19326    19327 1
   20175    19326    19384 1
   20176    19326    19385 1
   20177    19327    19328 1
   20178    19327    19386 1
   20179    19327    19387 1
   20180    19328    19329 1
   20181    19328    19388 1
   20182    19328    19389 1
   20183    19329    19330 1
   20184    19329    19390 1
   20185    19329    19391 1
   20186    19330    19331 1
   20187    19330    19392 1
   20188    19330    19393 1
   20189    19331    19332 1
   20190    19331    19394 1
   20191    19331    19395 1
   20192    19332    19396 1
   20193    19332    19397 1
   20194    19332    19398 1
   20195    19399    19400 1
   20196    19399    19406 1
   20197    19399    19438 1
   20198    19400    19401 1
   20199    19400    19404 1
   20200    19401    19402 1
   20201    19401    19405 1
   20202    19402    19403 1
   20203    19403    19404 1
   20204    19403    19414 1
   20205    19404    19410 1
   20206    19405    19406 1
   20207    19405    19409 1
   20208    19406    19407 1
   20209    19407    19408 1
   20210    19407    19411 1
   20211    19408    19409 1
   20212    19412    19413 1
   20213    19412    19420 1
   20214    19413    19414 1
   20215    19413    19421 1
   20216    19414    19415 1
   20217    19415    19416 1
   20218    19415    19419 1
   20219    19416    19417 1
   20220    19417    19418 1
   20221    19418    19419 1
   20222    19419    19420 1
   20223    19420    19530 1
   20224    19422    19423 1
   20225    19422    19455 1
   20226    19422    19456 1
   20227    19422    19457 1
   20228    19423    19424 1
   20229    19423    19458 1
   20230    19423    19459 1
   20231    19424    19425 1
   20232    19424    19460 1
   20233    19424    19461 1
   20234    19425    19426 1
   20235    19425    19462 1
   20236    19425    19463 1
   20237    19426    19427 1
   20238    19426    19464 1
   20239    19426    19465 1
   20240    19427    19428 1
   20241    19427    19466 1
   20242    19427    19467 1
   20243    19428    19429 1
   20244    19428    19468 1
   20245    19428    19469 1
   20246    19429    19430 1
   20247    19429    19470 1
   20248    19429    19471 1
   20249    19430    19431 1
   20250    19430    19437 1
   20251    19430    19472 1
   20252    19431    19432 1
   20253    19431    19473 1
   20254    19431    19474 1
   20255    19432    19433 1
   20256    19432    19475 1
   20257    19432    19476 1
   20258    19433    19434 1
   20259    19433    19477 1
   20260    19433    19478 1
   20261    19434    19435 1
   20262    19434    19479 1
   20263    19434    19480 1
   20264    19435    19436 1
   20265    19435    19481 1
   20266    19435    19482 1
   20267    19436    19483 1
   20268    19436    19484 1
   20269    19436    19485 1
   20270    19437    19438 1
   20271    19437    19486 1
   20272    19437    19487 1
   20273    19438    19439 1
   20274    19439    19440 1
   20275    19439    19488 1
   20276    19439    19489 1
   20277    19440    19441 1
   20278    19440    19447 1
   20279    19440    19490 1
   20280    19441    19442 1
   20281    19441    19491 1
   20282    19441    19492 1
   20283    19442    19443 1
   20284    19442    19493 1
   20285    19442    19494 1
   20286    19443    19444 1
   20287    19443    19495 1
   20288    19443    19496 1
   20289    19444    19445 1
   20290    19444    19497 1
   20291    19444    19498 1
   20292    19445    19446 1
   20293    19445    19499 1
   20294    19445    19500 1
   20295    19446    19501 1
   20296    19446    19502 1
   20297    19446    19503 1
   20298    19447    19448 1
   20299    19447    19504 1
   20300    19447    19505 1
   20301    19448    19449 1
   20302    19448    19506 1
   20303    19448    19507 1
   20304    19449    19450 1
   20305    19449    19508 1
   20306    19449    19509 1
   20307    19450    19451 1
   20308    19450    19510 1
   20309    19450    19511 1
   20310    19451    19452 1
   20311    19451    19512 1
   20312    19451    19513 1
   20313    19452    19453 1
   20314    19452    19514 1
   20315    19452    19515 1
   20316    19453    19454 1
   20317    19453    19516 1
   20318    19453    19517 1
   20319    19454    19518 1
   20320    19454    19519 1
   20321    19454    19520 1
   20322    19521    19522 1
   20323    19521    19528 1
   20324    19521    19560 1
   20325    19522    19523 1
   20326    19522    19526 1
   20327    19523    19524 1
   20328    19523    19527 1
   20329    19524    19525 1
   20330    19525    19526 1
   20331    19525    19536 1
   20332    19526    19532 1
   20333    19527    19528 1
   20334    19527    19531 1
   20335    19528    19529 1
   20336    19529    19530 1
   20337    19529    19533 1
   20338    19530    19531 1
   20339    19534    19535 1
   20340    19534    19542 1
   20341    19535    19536 1
   20342    19535    19543 1
   20343    19536    19537 1
   20344    19537    19538 1
   20345    19537    19541 1
   20346    19538    19539 1
   20347    19539    19540 1
   20348    19540    19541 1
   20349    19541    19542 1
   20350    19542    19652 1
   20351    19544    19545 1
   20352    19544    19577 1
   20353    19544    19578 1
   20354    19544    19579 1
   20355    19545    19546 1
   20356    19545    19580 1
   20357    19545    19581 1
   20358    19546    19547 1
   20359    19546    19582 1
   20360    19546    19583 1
   20361    19547    19548 1
   20362    19547    19584 1
   20363    19547    19585 1
   20364    19548    19549 1
   20365    19548    19586 1
   20366    19548    19587 1
   20367    19549    19550 1
   20368    19549    19588 1
   20369    19549    19589 1
   20370    19550    19551 1
   20371    19550    19590 1
   20372    19550    19591 1
   20373    19551    19552 1
   20374    19551    19592 1
   20375    19551    19593 1
   20376    19552    19553 1
   20377    19552    19559 1
   20378    19552    19594 1
   20379    19553    19554 1
   20380    19553    19595 1
   20381    19553    19596 1
   20382    19554    19555 1
   20383    19554    19597 1
   20384    19554    19598 1
   20385    19555    19556 1
   20386    19555    19599 1
   20387    19555    19600 1
   20388    19556    19557 1
   20389    19556    19601 1
   20390    19556    19602 1
   20391    19557    19558 1
   20392    19557    19603 1
   20393    19557    19604 1
   20394    19558    19605 1
   20395    19558    19606 1
   20396    19558    19607 1
   20397    19559    19560 1
   20398    19559    19608 1
   20399    19559    19609 1
   20400    19560    19561 1
   20401    19561    19562 1
   20402    19561    19610 1
   20403    19561    19611 1
   20404    19562    19563 1
   20405    19562    19569 1
   20406    19562    19612 1
   20407    19563    19564 1
   20408    19563    19613 1
   20409    19563    19614 1
   20410    19564    19565 1
   20411    19564    19615 1
   20412    19564    19616 1
   20413    19565    19566 1
   20414    19565    19617 1
   20415    19565    19618 1
   20416    19566    19567 1
   20417    19566    19619 1
   20418    19566    19620 1
   20419    19567    19568 1
   20420    19567    19621 1
   20421    19567    19622 1
   20422    19568    19623 1
   20423    19568    19624 1
   20424    19568    19625 1
   20425    19569    19570 1
   20426    19569    19626 1
   20427    19569    19627 1
   20428    19570    19571 1
   20429    19570    19628 1
   20430    19570    19629 1
   20431    19571    19572 1
   20432    19571    19630 1
   20433    19571    19631 1
   20434    19572    19573 1
   20435    19572    19632 1
   20436    19572    19633 1
   20437    19573    19574 1
   20438    19573    19634 1
   20439    19573    19635 1
   20440    19574    19575 1
   20441    19574    19636 1
   20442    19574    19637 1
   20443    19575    19576 1
   20444    19575    19638 1
   20445    19575    19639 1
   20446    19576    19640 1
   20447    19576    19641 1
   20448    19576    19642 1
   20449    19643    19644 1
   20450    19643    19650 1
   20451    19643    19682 1
   20452    19644    19645 1
   20453    19644    19648 1
   20454    19645    19646 1
   20455    19645    19649 1
   20456    19646    19647 1
   20457    19647    19648 1
   20458    19647    19658 1
   20459    19648    19654 1
   20460    19649    19650 1
   20461    19649    19653 1
   20462    19650    19651 1
   20463    19651    19652 1
   20464    19651    19655 1
   20465    19652    19653 1
   20466    19656    19657 1
   20467    19656    19664 1
   20468    19657    19658 1
   20469    19657    19665 1
   20470    19658    19659 1
   20471    19659    19660 1
   20472    19659    19663 1
   20473    19660    19661 1
   20474    19661    19662 1
   20475    19662    19663 1
   20476    19663    19664 1
   20477    19664    19774 1
   20478    19666    19667 1
   20479    19666    19699 1
   20480    19666    19700 1
   20481    19666    19701 1
   20482    19667    19668 1
   20483    19667    19702 1
   20484    19667    19703 1
   20485    19668    19669 1
   20486    19668    19704 1
   20487    19668    19705 1
   20488    19669    19670 1
   20489    19669    19706 1
   20490    19669    19707 1
   20491    19670    19671 1
   20492    19670    19708 1
   20493    19670    19709 1
   20494    19671    19672 1
   20495    19671    19710 1
   20496    19671    19711 1
   20497    19672    19673 1
   20498    19672    19712 1
   20499    19672    19713 1
   20500    19673    19674 1
   20501    19673    19714 1
   20502    19673    19715 1
   20503    19674    19675 1
   20504    19674    19681 1
   20505    19674    19716 1
   20506    19675    19676 1
   20507    19675    19717 1
   20508    19675    19718 1
   20509    19676    19677 1
   20510    19676    19719 1
   20511    19676    19720 1
   20512    19677    19678 1
   20513    19677    19721 1
   20514    19677    19722 1
   20515    19678    19679 1
   20516    19678    19723 1
   20517    19678    19724 1
   20518    19679    19680 1
   20519    19679    19725 1
   20520    19679    19726 1
   20521    19680    19727 1
   20522    19680    19728 1
   20523    19680    19729 1
   20524    19681    19682 1
   20525    19681    19730 1
   20526    19681    19731 1
   20527    19682    19683 1
   20528    19683    19684 1
   20529    19683    19732 1
   20530    19683    19733 1
   20531    19684    19685 1
   20532    19684    19691 1
   20533    19684    19734 1
   20534    19685    19686 1
   20535    19685    19735 1
   20536    19685    19736 1
   20537    19686    19687 1
   20538    19686    19737 1
   20539    19686    19738 1
   20540    19687    19688 1
   20541    19687    19739 1
   20542    19687    19740 1
   20543    19688    19689 1
   20544    19688    19741 1
   20545    19688    19742 1
   20546    19689    19690 1
   20547    19689    19743 1
   20548    19689    19744 1
   20549    19690    19745 1
   20550    19690    19746 1
   20551    19690    19747 1
   20552    19691    19692 1
   20553    19691    19748 1
   20554    19691    19749 1
   20555    19692    19693 1
   20556    19692    19750 1
   20557    19692    19751 1
   20558    19693    19694 1
   20559    19693    19752 1
   20560    19693    19753 1
   20561    19694    19695 1
   20562    19694    19754 1
   20563    19694    19755 1
   20564    19695    19696 1
   20565    19695    19756 1
   20566    19695    19757 1
   20567    19696    19697 1
   20568    19696    19758 1
   20569    19696    19759 1
   20570    19697    19698 1
   20571    19697    19760 1
   20572    19697    19761 1
   20573    19698    19762 1
   20574    19698    19763 1
   20575    19698    19764 1
   20576    19765    19766 1
   20577    19765    19772 1
   20578    19765    19804 1
   20579    19766    19767 1
   20580    19766    19770 1
   20581    19767    19768 1
   20582    19767    19771 1
   20583    19768    19769 1
   20584    19769    19770 1
   20585    19769    19780 1
   20586    19770    19776 1
   20587    19771    19772 1
   20588    19771    19775 1
   20589    19772    19773 1
   20590    19773    19774 1
   20591    19773    19777 1
   20592    19774    19775 1
   20593    19778    19779 1
   20594    19778    19786 1
   20595    19779    19780 1
   20596    19779    19787 1
   20597    19780    19781 1
   20598    19781    19782 1
   20599    19781    19785 1
   20600    19782    19783 1
   20601    19783    19784 1
   20602    19784    19785 1
   20603    19785    19786 1
   20604    19786    19896 1
   20605    19788    19789 1
   20606    19788    19821 1
   20607    19788    19822 1
   20608    19788    19823 1
   20609    19789    19790 1
   20610    19789    19824 1
   20611    19789    19825 1
   20612    19790    19791 1
   20613    19790    19826 1
   20614    19790    19827 1
   20615    19791    19792 1
   20616    19791    19828 1
   20617    19791    19829 1
   20618    19792    19793 1
   20619    19792    19830 1
   20620    19792    19831 1
   20621    19793    19794 1
   20622    19793    19832 1
   20623    19793    19833 1
   20624    19794    19795 1
   20625    19794    19834 1
   20626    19794    19835 1
   20627    19795    19796 1
   20628    19795    19836 1
   20629    19795    19837 1
   20630    19796    19797 1
   20631    19796    19803 1
   20632    19796    19838 1
   20633    19797    19798 1
   20634    19797    19839 1
   20635    19797    19840 1
   20636    19798    19799 1
   20637    19798    19841 1
   20638    19798    19842 1
   20639    19799    19800 1
   20640    19799    19843 1
   20641    19799    19844 1
   20642    19800    19801 1
   20643    19800    19845 1
   20644    19800    19846 1
   20645    19801    19802 1
   20646    19801    19847 1
   20647    19801    19848 1
   20648    19802    19849 1
   20649    19802    19850 1
   20650    19802    19851 1
   20651    19803    19804 1
   20652    19803    19852 1
   20653    19803    19853 1
   20654    19804    19805 1
   20655    19805    19806 1
   20656    19805    19854 1
   20657    19805    19855 1
   20658    19806    19807 1
   20659    19806    19813 1
   20660    19806    19856 1
   20661    19807    19808 1
   20662    19807    19857 1
   20663    19807    19858 1
   20664    19808    19809 1
   20665    19808    19859 1
   20666    19808    19860 1
   20667    19809    19810 1
   20668    19809    19861 1
   20669    19809    19862 1
   20670    19810    19811 1
   20671    19810    19863 1
   20672    19810    19864 1
   20673    19811    19812 1
   20674    19811    19865 1
   20675    19811    19866 1
   20676    19812    19867 1
   20677    19812    19868 1
   20678    19812    19869 1
   20679    19813    19814 1
   20680    19813    19870 1
   20681    19813    19871 1
   20682    19814    19815 1
   20683    19814    19872 1
   20684    19814    19873 1
   20685    19815    19816 1
   20686    19815    19874 1
   20687    19815    19875 1
   20688    19816    19817 1
   20689    19816    19876 1
   20690    19816    19877 1
   20691    19817    19818 1
   20692    19817    19878 1
   20693    19817    19879 1
   20694    19818    19819 1
   20695    19818    19880 1
   20696    19818    19881 1
   20697    19819    19820 1
   20698    19819    19882 1
   20699    19819    19883 1
   20700    19820    19884 1
   20701    19820    19885 1
   20702    19820    19886 1
   20703    19887    19888 1
   20704    19887    19894 1
   20705    19887    19926 1
   20706    19888    19889 1
   20707    19888    19892 1
   20708    19889    19890 1
   20709    19889    19893 1
   20710    19890    19891 1
   20711    19891    19892 1
   20712    19891    19902 1
   20713    19892    19898 1
   20714    19893    19894 1
   20715    19893    19897 1
   20716    19894    19895 1
   20717    19895    19896 1
   20718    19895    19899 1
   20719    19896    19897 1
   20720    19900    19901 1
   20721    19900    19908 1
   20722    19901    19902 1
   20723    19901    19909 1
   20724    19902    19903 1
   20725    19903    19904 1
   20726    19903    19907 1
   20727    19904    19905 1
   20728    19905    19906 1
   20729    19906    19907 1
   20730    19907    19908 1
   20731    19908    20018 1
   20732    19910    19911 1
   20733    19910    19943 1
   20734    19910    19944 1
   20735    19910    19945 1
   20736    19911    19912 1
   20737    19911    19946 1
   20738    19911    19947 1
   20739    19912    19913 1
   20740    19912    19948 1
   20741    19912    19949 1
   20742    19913    19914 1
   20743    19913    19950 1
   20744    19913    19951 1
   20745    19914    19915 1
   20746    19914    19952 1
   20747    19914    19953 1
   20748    19915    19916 1
   20749    19915    19954 1
   20750    19915    19955 1
   20751    19916    19917 1
   20752    19916    19956 1
   20753    19916    19957 1
   20754    19917    19918 1
   20755    19917    19958 1
   20756    19917    19959 1
   20757    19918    19919 1
   20758    19918    19925 1
   20759    19918    19960 1
   20760    19919    19920 1
   20761    19919    19961 1
   20762    19919    19962 1
   20763    19920    19921 1
   20764    19920    19963 1
   20765    19920    19964 1
   20766    19921    19922 1
   20767    19921    19965 1
   20768    19921    19966 1
   20769    19922    19923 1
   20770    19922    19967 1
   20771    19922    19968 1
   20772    19923    19924 1
   20773    19923    19969 1
   20774    19923    19970 1
   20775    19924    19971 1
   20776    19924    19972 1
   20777    19924    19973 1
   20778    19925    19926 1
   20779    19925    19974 1
   20780    19925    19975 1
   20781    19926    19927 1
   20782    19927    19928 1
   20783    19927    19976 1
   20784    19927    19977 1
   20785    19928    19929 1
   20786    19928    19935 1
   20787    19928    19978 1
   20788    19929    19930 1
   20789    19929    19979 1
   20790    19929    19980 1
   20791    19930    19931 1
   20792    19930    19981 1
   20793    19930    19982 1
   20794    19931    19932 1
   20795    19931    19983 1
   20796    19931    19984 1
   20797    19932    19933 1
   20798    19932    19985 1
   20799    19932    19986 1
   20800    19933    19934 1
   20801    19933    19987 1
   20802    19933    19988 1
   20803    19934    19989 1
   20804    19934    19990 1
   20805    19934    19991 1
   20806    19935    19936 1
   20807    19935    19992 1
   20808    19935    19993 1
   20809    19936    19937 1
   20810    19936    19994 1
   20811    19936    19995 1
   20812    19937    19938 1
   20813    19937    19996 1
   20814    19937    19997 1
   20815    19938    19939 1
   20816    19938    19998 1
   20817    19938    19999 1
   20818    19939    19940 1
   20819    19939    20000 1
   20820    19939    20001 1
   20821    19940    19941 1
   20822    19940    20002 1
   20823    19940    20003 1
   20824    19941    19942 1
   20825    19941    20004 1
   20826    19941    20005 1
   20827    19942    20006 1
   20828    19942    20007 1
   20829    19942    20008 1
   20830    20009    20010 1
   20831    20009    20016 1
   20832    20009    20048 1
   20833    20010    20011 1
   20834    20010    20014 1
   20835    20011    20012 1
   20836    20011    20015 1
   20837    20012    20013 1
   20838    20013    20014 1
   20839    20013    20024 1
   20840    20014    20020 1
   20841    20015    20016 1
   20842    20015    20019 1
   20843    20016    20017 1
   20844    20017    20018 1
   20845    20017    20021 1
   20846    20018    20019 1
   20847    20022    20023 1
   20848    20022    20030 1
   20849    20023    20024 1
   20850    20023    20031 1
   20851    20024    20025 1
   20852    20025    20026 1
   20853    20025    20029 1
   20854    20026    20027 1
   20855    20027    20028 1
   20856    20028    20029 1
   20857    20029    20030 1
   20858    20030    20140 1
   20859    20032    20033 1
   20860    20032    20065 1
   20861    20032    20066 1
   20862    20032    20067 1
   20863    20033    20034 1
   20864    20033    20068 1
   20865    20033    20069 1
   20866    20034    20035 1
   20867    20034    20070 1
   20868    20034    20071 1
   20869    20035    20036 1
   20870    20035    20072 1
   20871    20035    20073 1
   20872    20036    20037 1
   20873    20036    20074 1
   20874    20036    20075 1
   20875    20037    20038 1
   20876    20037    20076 1
   20877    20037    20077 1
   20878    20038    20039 1
   20879    20038    20078 1
   20880    20038    20079 1
   20881    20039    20040 1
   20882    20039    20080 1
   20883    20039    20081 1
   20884    20040    20041 1
   20885    20040    20047 1
   20886    20040    20082 1
   20887    20041    20042 1
   20888    20041    20083 1
   20889    20041    20084 1
   20890    20042    20043 1
   20891    20042    20085 1
   20892    20042    20086 1
   20893    20043    20044 1
   20894    20043    20087 1
   20895    20043    20088 1
   20896    20044    20045 1
   20897    20044    20089 1
   20898    20044    20090 1
   20899    20045    20046 1
   20900    20045    20091 1
   20901    20045    20092 1
   20902    20046    20093 1
   20903    20046    20094 1
   20904    20046    20095 1
   20905    20047    20048 1
   20906    20047    20096 1
   20907    20047    20097 1
   20908    20048    20049 1
   20909    20049    20050 1
   20910    20049    20098 1
   20911    20049    20099 1
   20912    20050    20051 1
   20913    20050    20057 1
   20914    20050    20100 1
   20915    20051    20052 1
   20916    20051    20101 1
   20917    20051    20102 1
   20918    20052    20053 1
   20919    20052    20103 1
   20920    20052    20104 1
   20921    20053    20054 1
   20922    20053    20105 1
   20923    20053    20106 1
   20924    20054    20055 1
   20925    20054    20107 1
   20926    20054    20108 1
   20927    20055    20056 1
   20928    20055    20109 1
   20929    20055    20110 1
   20930    20056    20111 1
   20931    20056    20112 1
   20932    20056    20113 1
   20933    20057    20058 1
   20934    20057    20114 1
   20935    20057    20115 1
   20936    20058    20059 1
   20937    20058    20116 1
   20938    20058    20117 1
   20939    20059    20060 1
   20940    20059    20118 1
   20941    20059    20119 1
   20942    20060    20061 1
   20943    20060    20120 1
   20944    20060    20121 1
   20945    20061    20062 1
   20946    20061    20122 1
   20947    20061    20123 1
   20948    20062    20063 1
   20949    20062    20124 1
   20950    20062    20125 1
   20951    20063    20064 1
   20952    20063    20126 1
   20953    20063    20127 1
   20954    20064    20128 1
   20955    20064    20129 1
   20956    20064    20130 1
   20957    20131    20132 1
   20958    20131    20138 1
   20959    20131    20170 1
   20960    20132    20133 1
   20961    20132    20136 1
   20962    20133    20134 1
   20963    20133    20137 1
   20964    20134    20135 1
   20965    20135    20136 1
   20966    20135    20146 1
   20967    20136    20142 1
   20968    20137    20138 1
   20969    20137    20141 1
   20970    20138    20139 1
   20971    20139    20140 1
   20972    20139    20143 1
   20973    20140    20141 1
   20974    20144    20145 1
   20975    20144    20152 1
   20976    20145    20146 1
   20977    20145    20153 1
   20978    20146    20147 1
   20979    20147    20148 1
   20980    20147    20151 1
   20981    20148    20149 1
   20982    20149    20150 1
   20983    20150    20151 1
   20984    20151    20152 1
   20985    20152    20262 1
   20986    20154    20155 1
   20987    20154    20187 1
   20988    20154    20188 1
   20989    20154    20189 1
   20990    20155    20156 1
   20991    20155    20190 1
   20992    20155    20191 1
   20993    20156    20157 1
   20994    20156    20192 1
   20995    20156    20193 1
   20996    20157    20158 1
   20997    20157    20194 1
   20998    20157    20195 1
   20999    20158    20159 1
   21000    20158    20196 1
   21001    20158    20197 1
   21002    20159    20160 1
   21003    20159    20198 1
   21004    20159    20199 1
   21005    20160    20161 1
   21006    20160    20200 1
   21007    20160    20201 1
   21008    20161    20162 1
   21009    20161    20202 1
   21010    20161    20203 1
   21011    20162    20163 1
   21012    20162    20169 1
   21013    20162    20204 1
   21014    20163    20164 1
   21015    20163    20205 1
   21016    20163    20206 1
   21017    20164    20165 1
   21018    20164    20207 1
   21019    20164    20208 1
   21020    20165    20166 1
   21021    20165    20209 1
   21022    20165    20210 1
   21023    20166    20167 1
   21024    20166    20211 1
   21025    20166    20212 1
   21026    20167    20168 1
   21027    20167    20213 1
   21028    20167    20214 1
   21029    20168    20215 1
   21030    20168    20216 1
   21031    20168    20217 1
   21032    20169    20170 1
   21033    20169    20218 1
   21034    20169    20219 1
   21035    20170    20171 1
   21036    20171    20172 1
   21037    20171    20220 1
   21038    20171    20221 1
   21039    20172    20173 1
   21040    20172    20179 1
   21041    20172    20222 1
   21042    20173    20174 1
   21043    20173    20223 1
   21044    20173    20224 1
   21045    20174    20175 1
   21046    20174    20225 1
   21047    20174    20226 1
   21048    20175    20176 1
   21049    20175    20227 1
   21050    20175    20228 1
   21051    20176    20177 1
   21052    20176    20229 1
   21053    20176    20230 1
   21054    20177    20178 1
   21055    20177    20231 1
   21056    20177    20232 1
   21057    20178    20233 1
   21058    20178    20234 1
   21059    20178    20235 1
   21060    20179    20180 1
   21061    20179    20236 1
   21062    20179    20237 1
   21063    20180    20181 1
   21064    20180    20238 1
   21065    20180    20239 1
   21066    20181    20182 1
   21067    20181    20240 1
   21068    20181    20241 1
   21069    20182    20183 1
   21070    20182    20242 1
   21071    20182    20243 1
   21072    20183    20184 1
   21073    20183    20244 1
   21074    20183    20245 1
   21075    20184    20185 1
   21076    20184    20246 1
   21077    20184    20247 1
   21078    20185    20186 1
   21079    20185    20248 1
   21080    20185    20249 1
   21081    20186    20250 1
   21082    20186    20251 1
   21083    20186    20252 1
   21084    20253    20254 1
   21085    20253    20260 1
   21086    20253    20292 1
   21087    20254    20255 1
   21088    20254    20258 1
   21089    20255    20256 1
   21090    20255    20259 1
   21091    20256    20257 1
   21092    20257    20258 1
   21093    20257    20268 1
   21094    20258    20264 1
   21095    20259    20260 1
   21096    20259    20263 1
   21097    20260    20261 1
   21098    20261    20262 1
   21099    20261    20265 1
   21100    20262    20263 1
   21101    20266    20267 1
   21102    20266    20274 1
   21103    20267    20268 1
   21104    20267    20275 1
   21105    20268    20269 1
   21106    20269    20270 1
   21107    20269    20273 1
   21108    20270    20271 1
   21109    20271    20272 1
   21110    20272    20273 1
   21111    20273    20274 1
   21112    20274    20384 1
   21113    20276    20277 1
   21114    20276    20309 1
   21115    20276    20310 1
   21116    20276    20311 1
   21117    20277    20278 1
   21118    20277    20312 1
   21119    20277    20313 1
   21120    20278    20279 1
   21121    20278    20314 1
   21122    20278    20315 1
   21123    20279    20280 1
   21124    20279    20316 1
   21125    20279    20317 1
   21126    20280    20281 1
   21127    20280    20318 1
   21128    20280    20319 1
   21129    20281    20282 1
   21130    20281    20320 1
   21131    20281    20321 1
   21132    20282    20283 1
   21133    20282    20322 1
   21134    20282    20323 1
   21135    20283    20284 1
   21136    20283    20324 1
   21137    20283    20325 1
   21138    20284    20285 1
   21139    20284    20291 1
   21140    20284    20326 1
   21141    20285    20286 1
   21142    20285    20327 1
   21143    20285    20328 1
   21144    20286    20287 1
   21145    20286    20329 1
   21146    20286    20330 1
   21147    20287    20288 1
   21148    20287    20331 1
   21149    20287    20332 1
   21150    20288    20289 1
   21151    20288    20333 1
   21152    20288    20334 1
   21153    20289    20290 1
   21154    20289    20335 1
   21155    20289    20336 1
   21156    20290    20337 1
   21157    20290    20338 1
   21158    20290    20339 1
   21159    20291    20292 1
   21160    20291    20340 1
   21161    20291    20341 1
   21162    20292    20293 1
   21163    20293    20294 1
   21164    20293    20342 1
   21165    20293    20343 1
   21166    20294    20295 1
   21167    20294    20301 1
   21168    20294    20344 1
   21169    20295    20296 1
   21170    20295    20345 1
   21171    20295    20346 1
   21172    20296    20297 1
   21173    20296    20347 1
   21174    20296    20348 1
   21175    20297    20298 1
   21176    20297    20349 1
   21177    20297    20350 1
   21178    20298    20299 1
   21179    20298    20351 1
   21180    20298    20352 1
   21181    20299    20300 1
   21182    20299    20353 1
   21183    20299    20354 1
   21184    20300    20355 1
   21185    20300    20356 1
   21186    20300    20357 1
   21187    20301    20302 1
   21188    20301    20358 1
   21189    20301    20359 1
   21190    20302    20303 1
   21191    20302    20360 1
   21192    20302    20361 1
   21193    20303    20304 1
   21194    20303    20362 1
   21195    20303    20363 1
   21196    20304    20305 1
   21197    20304    20364 1
   21198    20304    20365 1
   21199    20305    20306 1
   21200    20305    20366 1
   21201    20305    20367 1
   21202    20306    20307 1
   21203    20306    20368 1
   21204    20306    20369 1
   21205    20307    20308 1
   21206    20307    20370 1
   21207    20307    20371 1
   21208    20308    20372 1
   21209    20308    20373 1
   21210    20308    20374 1
   21211    20375    20376 1
   21212    20375    20382 1
   21213    20375    20414 1
   21214    20376    20377 1
   21215    20376    20380 1
   21216    20377    20378 1
   21217    20377    20381 1
   21218    20378    20379 1
   21219    20379    20380 1
   21220    20379    20390 1
   21221    20380    20386 1
   21222    20381    20382 1
   21223    20381    20385 1
   21224    20382    20383 1
   21225    20383    20384 1
   21226    20383    20387 1
   21227    20384    20385 1
   21228    20388    20389 1
   21229    20388    20396 1
   21230    20389    20390 1
   21231    20389    20397 1
   21232    20390    20391 1
   21233    20391    20392 1
   21234    20391    20395 1
   21235    20392    20393 1
   21236    20393    20394 1
   21237    20394    20395 1
   21238    20395    20396 1
   21239    20396    20506 1
   21240    20398    20399 1
   21241    20398    20431 1
   21242    20398    20432 1
   21243    20398    20433 1
   21244    20399    20400 1
   21245    20399    20434 1
   21246    20399    20435 1
   21247    20400    20401 1
   21248    20400    20436 1
   21249    20400    20437 1
   21250    20401    20402 1
   21251    20401    20438 1
   21252    20401    20439 1
   21253    20402    20403 1
   21254    20402    20440 1
   21255    20402    20441 1
   21256    20403    20404 1
   21257    20403    20442 1
   21258    20403    20443 1
   21259    20404    20405 1
   21260    20404    20444 1
   21261    20404    20445 1
   21262    20405    20406 1
   21263    20405    20446 1
   21264    20405    20447 1
   21265    20406    20407 1
   21266    20406    20413 1
   21267    20406    20448 1
   21268    20407    20408 1
   21269    20407    20449 1
   21270    20407    20450 1
   21271    20408    20409 1
   21272    20408    20451 1
   21273    20408    20452 1
   21274    20409    20410 1
   21275    20409    20453 1
   21276    20409    20454 1
   21277    20410    20411 1
   21278    20410    20455 1
   21279    20410    20456 1
   21280    20411    20412 1
   21281    20411    20457 1
   21282    20411    20458 1
   21283    20412    20459 1
   21284    20412    20460 1
   21285    20412    20461 1
   21286    20413    20414 1
   21287    20413    20462 1
   21288    20413    20463 1
   21289    20414    20415 1
   21290    20415    20416 1
   21291    20415    20464 1
   21292    20415    20465 1
   21293    20416    20417 1
   21294    20416    20423 1
   21295    20416    20466 1
   21296    20417    20418 1
   21297    20417    20467 1
   21298    20417    20468 1
   21299    20418    20419 1
   21300    20418    20469 1
   21301    20418    20470 1
   21302    20419    20420 1
   21303    20419    20471 1
   21304    20419    20472 1
   21305    20420    20421 1
   21306    20420    20473 1
   21307    20420    20474 1
   21308    20421    20422 1
   21309    20421    20475 1
   21310    20421    20476 1
   21311    20422    20477 1
   21312    20422    20478 1
   21313    20422    20479 1
   21314    20423    20424 1
   21315    20423    20480 1
   21316    20423    20481 1
   21317    20424    20425 1
   21318    20424    20482 1
   21319    20424    20483 1
   21320    20425    20426 1
   21321    20425    20484 1
   21322    20425    20485 1
   21323    20426    20427 1
   21324    20426    20486 1
   21325    20426    20487 1
   21326    20427    20428 1
   21327    20427    20488 1
   21328    20427    20489 1
   21329    20428    20429 1
   21330    20428    20490 1
   21331    20428    20491 1
   21332    20429    20430 1
   21333    20429    20492 1
   21334    20429    20493 1
   21335    20430    20494 1
   21336    20430    20495 1
   21337    20430    20496 1
   21338    20497    20498 1
   21339    20497    20504 1
   21340    20497    20536 1
   21341    20498    20499 1
   21342    20498    20502 1
   21343    20499    20500 1
   21344    20499    20503 1
   21345    20500    20501 1
   21346    20501    20502 1
   21347    20501    20512 1
   21348    20502    20508 1
   21349    20503    20504 1
   21350    20503    20507 1
   21351    20504    20505 1
   21352    20505    20506 1
   21353    20505    20509 1
   21354    20506    20507 1
   21355    20510    20511 1
   21356    20510    20518 1
   21357    20511    20512 1
   21358    20511    20519 1
   21359    20512    20513 1
   21360    20513    20514 1
   21361    20513    20517 1
   21362    20514    20515 1
   21363    20515    20516 1
   21364    20516    20517 1
   21365    20517    20518 1
   21366    20518    20628 1
   21367    20520    20521 1
   21368    20520    20553 1
   21369    20520    20554 1
   21370    20520    20555 1
   21371    20521    20522 1
   21372    20521    20556 1
   21373    20521    20557 1
   21374    20522    20523 1
   21375    20522    20558 1
   21376    20522    20559 1
   21377    20523    20524 1
   21378    20523    20560 1
   21379    20523    20561 1
   21380    20524    20525 1
   21381    20524    20562 1
   21382    20524    20563 1
   21383    20525    20526 1
   21384    20525    20564 1
   21385    20525    20565 1
   21386    20526    20527 1
   21387    20526    20566 1
   21388    20526    20567 1
   21389    20527    20528 1
   21390    20527    20568 1
   21391    20527    20569 1
   21392    20528    20529 1
   21393    20528    20535 1
   21394    20528    20570 1
   21395    20529    20530 1
   21396    20529    20571 1
   21397    20529    20572 1
   21398    20530    20531 1
   21399    20530    20573 1
   21400    20530    20574 1
   21401    20531    20532 1
   21402    20531    20575 1
   21403    20531    20576 1
   21404    20532    20533 1
   21405    20532    20577 1
   21406    20532    20578 1
   21407    20533    20534 1
   21408    20533    20579 1
   21409    20533    20580 1
   21410    20534    20581 1
   21411    20534    20582 1
   21412    20534    20583 1
   21413    20535    20536 1
   21414    20535    20584 1
   21415    20535    20585 1
   21416    20536    20537 1
   21417    20537    20538 1
   21418    20537    20586 1
   21419    20537    20587 1
   21420    20538    20539 1
   21421    20538    20545 1
   21422    20538    20588 1
   21423    20539    20540 1
   21424    20539    20589 1
   21425    20539    20590 1
   21426    20540    20541 1
   21427    20540    20591 1
   21428    20540    20592 1
   21429    20541    20542 1
   21430    20541    20593 1
   21431    20541    20594 1
   21432    20542    20543 1
   21433    20542    20595 1
   21434    20542    20596 1
   21435    20543    20544 1
   21436    20543    20597 1
   21437    20543    20598 1
   21438    20544    20599 1
   21439    20544    20600 1
   21440    20544    20601 1
   21441    20545    20546 1
   21442    20545    20602 1
   21443    20545    20603 1
   21444    20546    20547 1
   21445    20546    20604 1
   21446    20546    20605 1
   21447    20547    20548 1
   21448    20547    20606 1
   21449    20547    20607 1
   21450    20548    20549 1
   21451    20548    20608 1
   21452    20548    20609 1
   21453    20549    20550 1
   21454    20549    20610 1
   21455    20549    20611 1
   21456    20550    20551 1
   21457    20550    20612 1
   21458    20550    20613 1
   21459    20551    20552 1
   21460    20551    20614 1
   21461    20551    20615 1
   21462    20552    20616 1
   21463    20552    20617 1
   21464    20552    20618 1
   21465    20619    20620 1
   21466    20619    20626 1
   21467    20619    20658 1
   21468    20620    20621 1
   21469    20620    20624 1
   21470    20621    20622 1
   21471    20621    20625 1
   21472    20622    20623 1
   21473    20623    20624 1
   21474    20623    20634 1
   21475    20624    20630 1
   21476    20625    20626 1
   21477    20625    20629 1
   21478    20626    20627 1
   21479    20627    20628 1
   21480    20627    20631 1
   21481    20628    20629 1
   21482    20632    20633 1
   21483    20632    20640 1
   21484    20633    20634 1
   21485    20633    20641 1
   21486    20634    20635 1
   21487    20635    20636 1
   21488    20635    20639 1
   21489    20636    20637 1
   21490    20637    20638 1
   21491    20638    20639 1
   21492    20639    20640 1
   21493    20640    20750 1
   21494    20642    20643 1
   21495    20642    20675 1
   21496    20642    20676 1
   21497    20642    20677 1
   21498    20643    20644 1
   21499    20643    20678 1
   21500    20643    20679 1
   21501    20644    20645 1
   21502    20644    20680 1
   21503    20644    20681 1
   21504    20645    20646 1
   21505    20645    20682 1
   21506    20645    20683 1
   21507    20646    20647 1
   21508    20646    20684 1
   21509    20646    20685 1
   21510    20647    20648 1
   21511    20647    20686 1
   21512    20647    20687 1
   21513    20648    20649 1
   21514    20648    20688 1
   21515    20648    20689 1
   21516    20649    20650 1
   21517    20649    20690 1
   21518    20649    20691 1
   21519    20650    20651 1
   21520    20650    20657 1
   21521    20650    20692 1
   21522    20651    20652 1
   21523    20651    20693 1
   21524    20651    20694 1
   21525    20652    20653 1
   21526    20652    20695 1
   21527    20652    20696 1
   21528    20653    20654 1
   21529    20653    20697 1
   21530    20653    20698 1
   21531    20654    20655 1
   21532    20654    20699 1
   21533    20654    20700 1
   21534    20655    20656 1
   21535    20655    20701 1
   21536    20655    20702 1
   21537    20656    20703 1
   21538    20656    20704 1
   21539    20656    20705 1
   21540    20657    20658 1
   21541    20657    20706 1
   21542    20657    20707 1
   21543    20658    20659 1
   21544    20659    20660 1
   21545    20659    20708 1
   21546    20659    20709 1
   21547    20660    20661 1
   21548    20660    20667 1
   21549    20660    20710 1
   21550    20661    20662 1
   21551    20661    20711 1
   21552    20661    20712 1
   21553    20662    20663 1
   21554    20662    20713 1
   21555    20662    20714 1
   21556    20663    20664 1
   21557    20663    20715 1
   21558    20663    20716 1
   21559    20664    20665 1
   21560    20664    20717 1
   21561    20664    20718 1
   21562    20665    20666 1
   21563    20665    20719 1
   21564    20665    20720 1
   21565    20666    20721 1
   21566    20666    20722 1
   21567    20666    20723 1
   21568    20667    20668 1
   21569    20667    20724 1
   21570    20667    20725 1
   21571    20668    20669 1
   21572    20668    20726 1
   21573    20668    20727 1
   21574    20669    20670 1
   21575    20669    20728 1
   21576    20669    20729 1
   21577    20670    20671 1
   21578    20670    20730 1
   21579    20670    20731 1
   21580    20671    20672 1
   21581    20671    20732 1
   21582    20671    20733 1
   21583    20672    20673 1
   21584    20672    20734 1
   21585    20672    20735 1
   21586    20673    20674 1
   21587    20673    20736 1
   21588    20673    20737 1
   21589    20674    20738 1
   21590    20674    20739 1
   21591    20674    20740 1
   21592    20741    20742 1
   21593    20741    20748 1
   21594    20741    20780 1
   21595    20742    20743 1
   21596    20742    20746 1
   21597    20743    20744 1
   21598    20743    20747 1
   21599    20744    20745 1
   21600    20745    20746 1
   21601    20745    20756 1
   21602    20746    20752 1
   21603    20747    20748 1
   21604    20747    20751 1
   21605    20748    20749 1
   21606    20749    20750 1
   21607    20749    20753 1
   21608    20750    20751 1
   21609    20754    20755 1
   21610    20754    20762 1
   21611    20755    20756 1
   21612    20755    20763 1
   21613    20756    20757 1
   21614    20757    20758 1
   21615    20757    20761 1
   21616    20758    20759 1
   21617    20759    20760 1
   21618    20760    20761 1
   21619    20761    20762 1
   21620    20762    20872 1
   21621    20764    20765 1
   21622    20764    20797 1
   21623    20764    20798 1
   21624    20764    20799 1
   21625    20765    20766 1
   21626    20765    20800 1
   21627    20765    20801 1
   21628    20766    20767 1
   21629    20766    20802 1
   21630    20766    20803 1
   21631    20767    20768 1
   21632    20767    20804 1
   21633    20767    20805 1
   21634    20768    20769 1
   21635    20768    20806 1
   21636    20768    20807 1
   21637    20769    20770 1
   21638    20769    20808 1
   21639    20769    20809 1
   21640    20770    20771 1
   21641    20770    20810 1
   21642    20770    20811 1
   21643    20771    20772 1
   21644    20771    20812 1
   21645    20771    20813 1
   21646    20772    20773 1
   21647    20772    20779 1
   21648    20772    20814 1
   21649    20773    20774 1
   21650    20773    20815 1
   21651    20773    20816 1
   21652    20774    20775 1
   21653    20774    20817 1
   21654    20774    20818 1
   21655    20775    20776 1
   21656    20775    20819 1
   21657    20775    20820 1
   21658    20776    20777 1
   21659    20776    20821 1
   21660    20776    20822 1
   21661    20777    20778 1
   21662    20777    20823 1
   21663    20777    20824 1
   21664    20778    20825 1
   21665    20778    20826 1
   21666    20778    20827 1
   21667    20779    20780 1
   21668    20779    20828 1
   21669    20779    20829 1
   21670    20780    20781 1
   21671    20781    20782 1
   21672    20781    20830 1
   21673    20781    20831 1
   21674    20782    20783 1
   21675    20782    20789 1
   21676    20782    20832 1
   21677    20783    20784 1
   21678    20783    20833 1
   21679    20783    20834 1
   21680    20784    20785 1
   21681    20784    20835 1
   21682    20784    20836 1
   21683    20785    20786 1
   21684    20785    20837 1
   21685    20785    20838 1
   21686    20786    20787 1
   21687    20786    20839 1
   21688    20786    20840 1
   21689    20787    20788 1
   21690    20787    20841 1
   21691    20787    20842 1
   21692    20788    20843 1
   21693    20788    20844 1
   21694    20788    20845 1
   21695    20789    20790 1
   21696    20789    20846 1
   21697    20789    20847 1
   21698    20790    20791 1
   21699    20790    20848 1
   21700    20790    20849 1
   21701    20791    20792 1
   21702    20791    20850 1
   21703    20791    20851 1
   21704    20792    20793 1
   21705    20792    20852 1
   21706    20792    20853 1
   21707    20793    20794 1
   21708    20793    20854 1
   21709    20793    20855 1
   21710    20794    20795 1
   21711    20794    20856 1
   21712    20794    20857 1
   21713    20795    20796 1
   21714    20795    20858 1
   21715    20795    20859 1
   21716    20796    20860 1
   21717    20796    20861 1
   21718    20796    20862 1
   21719    20863    20864 1
   21720    20863    20870 1
   21721    20863    20902 1
   21722    20864    20865 1
   21723    20864    20868 1
   21724    20865    20866 1
   21725    20865    20869 1
   21726    20866    20867 1
   21727    20867    20868 1
   21728    20867    20878 1
   21729    20868    20874 1
   21730    20869    20870 1
   21731    20869    20873 1
   21732    20870    20871 1
   21733    20871    20872 1
   21734    20871    20875 1
   21735    20872    20873 1
   21736    20876    20877 1
   21737    20876    20884 1
   21738    20877    20878 1
   21739    20877    20885 1
   21740    20878    20879 1
   21741    20879    20880 1
   21742    20879    20883 1
   21743    20880    20881 1
   21744    20881    20882 1
   21745    20882    20883 1
   21746    20883    20884 1
   21747    20884    20994 1
   21748    20886    20887 1
   21749    20886    20919 1
   21750    20886    20920 1
   21751    20886    20921 1
   21752    20887    20888 1
   21753    20887    20922 1
   21754    20887    20923 1
   21755    20888    20889 1
   21756    20888    20924 1
   21757    20888    20925 1
   21758    20889    20890 1
   21759    20889    20926 1
   21760    20889    20927 1
   21761    20890    20891 1
   21762    20890    20928 1
   21763    20890    20929 1
   21764    20891    20892 1
   21765    20891    20930 1
   21766    20891    20931 1
   21767    20892    20893 1
   21768    20892    20932 1
   21769    20892    20933 1
   21770    20893    20894 1
   21771    20893    20934 1
   21772    20893    20935 1
   21773    20894    20895 1
   21774    20894    20901 1
   21775    20894    20936 1
   21776    20895    20896 1
   21777    20895    20937 1
   21778    20895    20938 1
   21779    20896    20897 1
   21780    20896    20939 1
   21781    20896    20940 1
   21782    20897    20898 1
   21783    20897    20941 1
   21784    20897    20942 1
   21785    20898    20899 1
   21786    20898    20943 1
   21787    20898    20944 1
   21788    20899    20900 1
   21789    20899    20945 1
   21790    20899    20946 1
   21791    20900    20947 1
   21792    20900    20948 1
   21793    20900    20949 1
   21794    20901    20902 1
   21795    20901    20950 1
   21796    20901    20951 1
   21797    20902    20903 1
   21798    20903    20904 1
   21799    20903    20952 1
   21800    20903    20953 1
   21801    20904    20905 1
   21802    20904    20911 1
   21803    20904    20954 1
   21804    20905    20906 1
   21805    20905    20955 1
   21806    20905    20956 1
   21807    20906    20907 1
   21808    20906    20957 1
   21809    20906    20958 1
   21810    20907    20908 1
   21811    20907    20959 1
   21812    20907    20960 1
   21813    20908    20909 1
   21814    20908    20961 1
   21815    20908    20962 1
   21816    20909    20910 1
   21817    20909    20963 1
   21818    20909    20964 1
   21819    20910    20965 1
   21820    20910    20966 1
   21821    20910    20967 1
   21822    20911    20912 1
   21823    20911    20968 1
   21824    20911    20969 1
   21825    20912    20913 1
   21826    20912    20970 1
   21827    20912    20971 1
   21828    20913    20914 1
   21829    20913    20972 1
   21830    20913    20973 1
   21831    20914    20915 1
   21832    20914    20974 1
   21833    20914    20975 1
   21834    20915    20916 1
   21835    20915    20976 1
   21836    20915    20977 1
   21837    20916    20917 1
   21838    20916    20978 1
   21839    20916    20979 1
   21840    20917    20918 1
   21841    20917    20980 1
   21842    20917    20981 1
   21843    20918    20982 1
   21844    20918    20983 1
   21845    20918    20984 1
   21846    20985    20986 1
   21847    20985    20992 1
   21848    20985    21024 1
   21849    20986    20987 1
   21850    20986    20990 1
   21851    20987    20988 1
   21852    20987    20991 1
   21853    20988    20989 1
   21854    20989    20990 1
   21855    20989    21000 1
   21856    20990    20996 1
   21857    20991    20992 1
   21858    20991    20995 1
   21859    20992    20993 1
   21860    20993    20994 1
   21861    20993    20997 1
   21862    20994    20995 1
   21863    20998    20999 1
   21864    20998    21006 1
   21865    20999    21000 1
   21866    20999    21007 1
   21867    21000    21001 1
   21868    21001    21002 1
   21869    21001    21005 1
   21870    21002    21003 1
   21871    21003    21004 1
   21872    21004    21005 1
   21873    21005    21006 1
   21874    21006    21116 1
   21875    21008    21009 1
   21876    21008    21041 1
   21877    21008    21042 1
   21878    21008    21043 1
   21879    21009    21010 1
   21880    21009    21044 1
   21881    21009    21045 1
   21882    21010    21011 1
   21883    21010    21046 1
   21884    21010    21047 1
   21885    21011    21012 1
   21886    21011    21048 1
   21887    21011    21049 1
   21888    21012    21013 1
   21889    21012    21050 1
   21890    21012    21051 1
   21891    21013    21014 1
   21892    21013    21052 1
   21893    21013    21053 1
   21894    21014    21015 1
   21895    21014    21054 1
   21896    21014    21055 1
   21897    21015    21016 1
   21898    21015    21056 1
   21899    21015    21057 1
   21900    21016    21017 1
   21901    21016    21023 1
   21902    21016    21058 1
   21903    21017    21018 1
   21904    21017    21059 1
   21905    21017    21060 1
   21906    21018    21019 1
   21907    21018    21061 1
   21908    21018    21062 1
   21909    21019    21020 1
   21910    21019    21063 1
   21911    21019    21064 1
   21912    21020    21021 1
   21913    21020    21065 1
   21914    21020    21066 1
   21915    21021    21022 1
   21916    21021    21067 1
   21917    21021    21068 1
   21918    21022    21069 1
   21919    21022    21070 1
   21920    21022    21071 1
   21921    21023    21024 1
   21922    21023    21072 1
   21923    21023    21073 1
   21924    21024    21025 1
   21925    21025    21026 1
   21926    21025    21074 1
   21927    21025    21075 1
   21928    21026    21027 1
   21929    21026    21033 1
   21930    21026    21076 1
   21931    21027    21028 1
   21932    21027    21077 1
   21933    21027    21078 1
   21934    21028    21029 1
   21935    21028    21079 1
   21936    21028    21080 1
   21937    21029    21030 1
   21938    21029    21081 1
   21939    21029    21082 1
   21940    21030    21031 1
   21941    21030    21083 1
   21942    21030    21084 1
   21943    21031    21032 1
   21944    21031    21085 1
   21945    21031    21086 1
   21946    21032    21087 1
   21947    21032    21088 1
   21948    21032    21089 1
   21949    21033    21034 1
   21950    21033    21090 1
   21951    21033    21091 1
   21952    21034    21035 1
   21953    21034    21092 1
   21954    21034    21093 1
   21955    21035    21036 1
   21956    21035    21094 1
   21957    21035    21095 1
   21958    21036    21037 1
   21959    21036    21096 1
   21960    21036    21097 1
   21961    21037    21038 1
   21962    21037    21098 1
   21963    21037    21099 1
   21964    21038    21039 1
   21965    21038    21100 1
   21966    21038    21101 1
   21967    21039    21040 1
   21968    21039    21102 1
   21969    21039    21103 1
   21970    21040    21104 1
   21971    21040    21105 1
   21972    21040    21106 1
   21973    21107    21108 1
   21974    21107    21114 1
   21975    21107    21146 1
   21976    21108    21109 1
   21977    21108    21112 1
   21978    21109    21110 1
   21979    21109    21113 1
   21980    21110    21111 1
   21981    21111    21112 1
   21982    21111    21122 1
   21983    21112    21118 1
   21984    21113    21114 1
   21985    21113    21117 1
   21986    21114    21115 1
   21987    21115    21116 1
   21988    21115    21119 1
   21989    21116    21117 1
   21990    21120    21121 1
   21991    21120    21128 1
   21992    21121    21122 1
   21993    21121    21129 1
   21994    21122    21123 1
   21995    21123    21124 1
   21996    21123    21127 1
   21997    21124    21125 1
   21998    21125    21126 1
   21999    21126    21127 1
   22000    21127    21128 1
   22001    21128    21238 1
   22002    21130    21131 1
   22003    21130    21163 1
   22004    21130    21164 1
   22005    21130    21165 1
   22006    21131    21132 1
   22007    21131    21166 1
   22008    21131    21167 1
   22009    21132    21133 1
   22010    21132    21168 1
   22011    21132    21169 1
   22012    21133    21134 1
   22013    21133    21170 1
   22014    21133    21171 1
   22015    21134    21135 1
   22016    21134    21172 1
   22017    21134    21173 1
   22018    21135    21136 1
   22019    21135    21174 1
   22020    21135    21175 1
   22021    21136    21137 1
   22022    21136    21176 1
   22023    21136    21177 1
   22024    21137    21138 1
   22025    21137    21178 1
   22026    21137    21179 1
   22027    21138    21139 1
   22028    21138    21145 1
   22029    21138    21180 1
   22030    21139    21140 1
   22031    21139    21181 1
   22032    21139    21182 1
   22033    21140    21141 1
   22034    21140    21183 1
   22035    21140    21184 1
   22036    21141    21142 1
   22037    21141    21185 1
   22038    21141    21186 1
   22039    21142    21143 1
   22040    21142    21187 1
   22041    21142    21188 1
   22042    21143    21144 1
   22043    21143    21189 1
   22044    21143    21190 1
   22045    21144    21191 1
   22046    21144    21192 1
   22047    21144    21193 1
   22048    21145    21146 1
   22049    21145    21194 1
   22050    21145    21195 1
   22051    21146    21147 1
   22052    21147    21148 1
   22053    21147    21196 1
   22054    21147    21197 1
   22055    21148    21149 1
   22056    21148    21155 1
   22057    21148    21198 1
   22058    21149    21150 1
   22059    21149    21199 1
   22060    21149    21200 1
   22061    21150    21151 1
   22062    21150    21201 1
   22063    21150    21202 1
   22064    21151    21152 1
   22065    21151    21203 1
   22066    21151    21204 1
   22067    21152    21153 1
   22068    21152    21205 1
   22069    21152    21206 1
   22070    21153    21154 1
   22071    21153    21207 1
   22072    21153    21208 1
   22073    21154    21209 1
   22074    21154    21210 1
   22075    21154    21211 1
   22076    21155    21156 1
   22077    21155    21212 1
   22078    21155    21213 1
   22079    21156    21157 1
   22080    21156    21214 1
   22081    21156    21215 1
   22082    21157    21158 1
   22083    21157    21216 1
   22084    21157    21217 1
   22085    21158    21159 1
   22086    21158    21218 1
   22087    21158    21219 1
   22088    21159    21160 1
   22089    21159    21220 1
   22090    21159    21221 1
   22091    21160    21161 1
   22092    21160    21222 1
   22093    21160    21223 1
   22094    21161    21162 1
   22095    21161    21224 1
   22096    21161    21225 1
   22097    21162    21226 1
   22098    21162    21227 1
   22099    21162    21228 1
   22100    21229    21230 1
   22101    21229    21236 1
   22102    21229    21268 1
   22103    21230    21231 1
   22104    21230    21234 1
   22105    21231    21232 1
   22106    21231    21235 1
   22107    21232    21233 1
   22108    21233    21234 1
   22109    21233    21244 1
   22110    21234    21240 1
   22111    21235    21236 1
   22112    21235    21239 1
   22113    21236    21237 1
   22114    21237    21238 1
   22115    21237    21241 1
   22116    21238    21239 1
   22117    21242    21243 1
   22118    21242    21250 1
   22119    21243    21244 1
   22120    21243    21251 1
   22121    21244    21245 1
   22122    21245    21246 1
   22123    21245    21249 1
   22124    21246    21247 1
   22125    21247    21248 1
   22126    21248    21249 1
   22127    21249    21250 1
   22128    21250    21360 1
   22129    21252    21253 1
   22130    21252    21285 1
   22131    21252    21286 1
   22132    21252    21287 1
   22133    21253    21254 1
   22134    21253    21288 1
   22135    21253    21289 1
   22136    21254    21255 1
   22137    21254    21290 1
   22138    21254    21291 1
   22139    21255    21256 1
   22140    21255    21292 1
   22141    21255    21293 1
   22142    21256    21257 1
   22143    21256    21294 1
   22144    21256    21295 1
   22145    21257    21258 1
   22146    21257    21296 1
   22147    21257    21297 1
   22148    21258    21259 1
   22149    21258    21298 1
   22150    21258    21299 1
   22151    21259    21260 1
   22152    21259    21300 1
   22153    21259    21301 1
   22154    21260    21261 1
   22155    21260    21267 1
   22156    21260    21302 1
   22157    21261    21262 1
   22158    21261    21303 1
   22159    21261    21304 1
   22160    21262    21263 1
   22161    21262    21305 1
   22162    21262    21306 1
   22163    21263    21264 1
   22164    21263    21307 1
   22165    21263    21308 1
   22166    21264    21265 1
   22167    21264    21309 1
   22168    21264    21310 1
   22169    21265    21266 1
   22170    21265    21311 1
   22171    21265    21312 1
   22172    21266    21313 1
   22173    21266    21314 1
   22174    21266    21315 1
   22175    21267    21268 1
   22176    21267    21316 1
   22177    21267    21317 1
   22178    21268    21269 1
   22179    21269    21270 1
   22180    21269    21318 1
   22181    21269    21319 1
   22182    21270    21271 1
   22183    21270    21277 1
   22184    21270    21320 1
   22185    21271    21272 1
   22186    21271    21321 1
   22187    21271    21322 1
   22188    21272    21273 1
   22189    21272    21323 1
   22190    21272    21324 1
   22191    21273    21274 1
   22192    21273    21325 1
   22193    21273    21326 1
   22194    21274    21275 1
   22195    21274    21327 1
   22196    21274    21328 1
   22197    21275    21276 1
   22198    21275    21329 1
   22199    21275    21330 1
   22200    21276    21331 1
   22201    21276    21332 1
   22202    21276    21333 1
   22203    21277    21278 1
   22204    21277    21334 1
   22205    21277    21335 1
   22206    21278    21279 1
   22207    21278    21336 1
   22208    21278    21337 1
   22209    21279    21280 1
   22210    21279    21338 1
   22211    21279    21339 1
   22212    21280    21281 1
   22213    21280    21340 1
   22214    21280    21341 1
   22215    21281    21282 1
   22216    21281    21342 1
   22217    21281    21343 1
   22218    21282    21283 1
   22219    21282    21344 1
   22220    21282    21345 1
   22221    21283    21284 1
   22222    21283    21346 1
   22223    21283    21347 1
   22224    21284    21348 1
   22225    21284    21349 1
   22226    21284    21350 1
   22227    21351    21352 1
   22228    21351    21358 1
   22229    21351    21390 1
   22230    21352    21353 1
   22231    21352    21356 1
   22232    21353    21354 1
   22233    21353    21357 1
   22234    21354    21355 1
   22235    21355    21356 1
   22236    21355    21366 1
   22237    21356    21362 1
   22238    21357    21358 1
   22239    21357    21361 1
   22240    21358    21359 1
   22241    21359    21360 1
   22242    21359    21363 1
   22243    21360    21361 1
   22244    21364    21365 1
   22245    21364    21372 1
   22246    21365    21366 1
   22247    21365    21373 1
   22248    21366    21367 1
   22249    21367    21368 1
   22250    21367    21371 1
   22251    21368    21369 1
   22252    21369    21370 1
   22253    21370    21371 1
   22254    21371    21372 1
   22255    21372    21482 1
   22256    21374    21375 1
   22257    21374    21407 1
   22258    21374    21408 1
   22259    21374    21409 1
   22260    21375    21376 1
   22261    21375    21410 1
   22262    21375    21411 1
   22263    21376    21377 1
   22264    21376    21412 1
   22265    21376    21413 1
   22266    21377    21378 1
   22267    21377    21414 1
   22268    21377    21415 1
   22269    21378    21379 1
   22270    21378    21416 1
   22271    21378    21417 1
   22272    21379    21380 1
   22273    21379    21418 1
   22274    21379    21419 1
   22275    21380    21381 1
   22276    21380    21420 1
   22277    21380    21421 1
   22278    21381    21382 1
   22279    21381    21422 1
   22280    21381    21423 1
   22281    21382    21383 1
   22282    21382    21389 1
   22283    21382    21424 1
   22284    21383    21384 1
   22285    21383    21425 1
   22286    21383    21426 1
   22287    21384    21385 1
   22288    21384    21427 1
   22289    21384    21428 1
   22290    21385    21386 1
   22291    21385    21429 1
   22292    21385    21430 1
   22293    21386    21387 1
   22294    21386    21431 1
   22295    21386    21432 1
   22296    21387    21388 1
   22297    21387    21433 1
   22298    21387    21434 1
   22299    21388    21435 1
   22300    21388    21436 1
   22301    21388    21437 1
   22302    21389    21390 1
   22303    21389    21438 1
   22304    21389    21439 1
   22305    21390    21391 1
   22306    21391    21392 1
   22307    21391    21440 1
   22308    21391    21441 1
   22309    21392    21393 1
   22310    21392    21399 1
   22311    21392    21442 1
   22312    21393    21394 1
   22313    21393    21443 1
   22314    21393    21444 1
   22315    21394    21395 1
   22316    21394    21445 1
   22317    21394    21446 1
   22318    21395    21396 1
   22319    21395    21447 1
   22320    21395    21448 1
   22321    21396    21397 1
   22322    21396    21449 1
   22323    21396    21450 1
   22324    21397    21398 1
   22325    21397    21451 1
   22326    21397    21452 1
   22327    21398    21453 1
   22328    21398    21454 1
   22329    21398    21455 1
   22330    21399    21400 1
   22331    21399    21456 1
   22332    21399    21457 1
   22333    21400    21401 1
   22334    21400    21458 1
   22335    21400    21459 1
   22336    21401    21402 1
   22337    21401    21460 1
   22338    21401    21461 1
   22339    21402    21403 1
   22340    21402    21462 1
   22341    21402    21463 1
   22342    21403    21404 1
   22343    21403    21464 1
   22344    21403    21465 1
   22345    21404    21405 1
   22346    21404    21466 1
   22347    21404    21467 1
   22348    21405    21406 1
   22349    21405    21468 1
   22350    21405    21469 1
   22351    21406    21470 1
   22352    21406    21471 1
   22353    21406    21472 1
   22354    21473    21474 1
   22355    21473    21480 1
   22356    21473    21512 1
   22357    21474    21475 1
   22358    21474    21478 1
   22359    21475    21476 1
   22360    21475    21479 1
   22361    21476    21477 1
   22362    21477    21478 1
   22363    21477    21488 1
   22364    21478    21484 1
   22365    21479    21480 1
   22366    21479    21483 1
   22367    21480    21481 1
   22368    21481    21482 1
   22369    21481    21485 1
   22370    21482    21483 1
   22371    21486    21487 1
   22372    21486    21494 1
   22373    21487    21488 1
   22374    21487    21495 1
   22375    21488    21489 1
   22376    21489    21490 1
   22377    21489    21493 1
   22378    21490    21491 1
   22379    21491    21492 1
   22380    21492    21493 1
   22381    21493    21494 1
   22382    21494    21604 1
   22383    21496    21497 1
   22384    21496    21529 1
   22385    21496    21530 1
   22386    21496    21531 1
   22387    21497    21498 1
   22388    21497    21532 1
   22389    21497    21533 1
   22390    21498    21499 1
   22391    21498    21534 1
   22392    21498    21535 1
   22393    21499    21500 1
   22394    21499    21536 1
   22395    21499    21537 1
   22396    21500    21501 1
   22397    21500    21538 1
   22398    21500    21539 1
   22399    21501    21502 1
   22400    21501    21540 1
   22401    21501    21541 1
   22402    21502    21503 1
   22403    21502    21542 1
   22404    21502    21543 1
   22405    21503    21504 1
   22406    21503    21544 1
   22407    21503    21545 1
   22408    21504    21505 1
   22409    21504    21511 1
   22410    21504    21546 1
   22411    21505    21506 1
   22412    21505    21547 1
   22413    21505    21548 1
   22414    21506    21507 1
   22415    21506    21549 1
   22416    21506    21550 1
   22417    21507    21508 1
   22418    21507    21551 1
   22419    21507    21552 1
   22420    21508    21509 1
   22421    21508    21553 1
   22422    21508    21554 1
   22423    21509    21510 1
   22424    21509    21555 1
   22425    21509    21556 1
   22426    21510    21557 1
   22427    21510    21558 1
   22428    21510    21559 1
   22429    21511    21512 1
   22430    21511    21560 1
   22431    21511    21561 1
   22432    21512    21513 1
   22433    21513    21514 1
   22434    21513    21562 1
   22435    21513    21563 1
   22436    21514    21515 1
   22437    21514    21521 1
   22438    21514    21564 1
   22439    21515    21516 1
   22440    21515    21565 1
   22441    21515    21566 1
   22442    21516    21517 1
   22443    21516    21567 1
   22444    21516    21568 1
   22445    21517    21518 1
   22446    21517    21569 1
   22447    21517    21570 1
   22448    21518    21519 1
   22449    21518    21571 1
   22450    21518    21572 1
   22451    21519    21520 1
   22452    21519    21573 1
   22453    21519    21574 1
   22454    21520    21575 1
   22455    21520    21576 1
   22456    21520    21577 1
   22457    21521    21522 1
   22458    21521    21578 1
   22459    21521    21579 1
   22460    21522    21523 1
   22461    21522    21580 1
   22462    21522    21581 1
   22463    21523    21524 1
   22464    21523    21582 1
   22465    21523    21583 1
   22466    21524    21525 1
   22467    21524    21584 1
   22468    21524    21585 1
   22469    21525    21526 1
   22470    21525    21586 1
   22471    21525    21587 1
   22472    21526    21527 1
   22473    21526    21588 1
   22474    21526    21589 1
   22475    21527    21528 1
   22476    21527    21590 1
   22477    21527    21591 1
   22478    21528    21592 1
   22479    21528    21593 1
   22480    21528    21594 1
   22481    21595    21596 1
   22482    21595    21602 1
   22483    21595    21634 1
   22484    21596    21597 1
   22485    21596    21600 1
   22486    21597    21598 1
   22487    21597    21601 1
   22488    21598    21599 1
   22489    21599    21600 1
   22490    21599    21610 1
   22491    21600    21606 1
   22492    21601    21602 1
   22493    21601    21605 1
   22494    21602    21603 1
   22495    21603    21604 1
   22496    21603    21607 1
   22497    21604    21605 1
   22498    21608    21609 1
   22499    21608    21616 1
   22500    21609    21610 1
   22501    21609    21617 1
   22502    21610    21611 1
   22503    21611    21612 1
   22504    21611    21615 1
   22505    21612    21613 1
   22506    21613    21614 1
   22507    21614    21615 1
   22508    21615    21616 1
   22509    21616    21726 1
   22510    21618    21619 1
   22511    21618    21651 1
   22512    21618    21652 1
   22513    21618    21653 1
   22514    21619    21620 1
   22515    21619    21654 1
   22516    21619    21655 1
   22517    21620    21621 1
   22518    21620    21656 1
   22519    21620    21657 1
   22520    21621    21622 1
   22521    21621    21658 1
   22522    21621    21659 1
   22523    21622    21623 1
   22524    21622    21660 1
   22525    21622    21661 1
   22526    21623    21624 1
   22527    21623    21662 1
   22528    21623    21663 1
   22529    21624    21625 1
   22530    21624    21664 1
   22531    21624    21665 1
   22532    21625    21626 1
   22533    21625    21666 1
   22534    21625    21667 1
   22535    21626    21627 1
   22536    21626    21633 1
   22537    21626    21668 1
   22538    21627    21628 1
   22539    21627    21669 1
   22540    21627    21670 1
   22541    21628    21629 1
   22542    21628    21671 1
   22543    21628    21672 1
   22544    21629    21630 1
   22545    21629    21673 1
   22546    21629    21674 1
   22547    21630    21631 1
   22548    21630    21675 1
   22549    21630    21676 1
   22550    21631    21632 1
   22551    21631    21677 1
   22552    21631    21678 1
   22553    21632    21679 1
   22554    21632    21680 1
   22555    21632    21681 1
   22556    21633    21634 1
   22557    21633    21682 1
   22558    21633    21683 1
   22559    21634    21635 1
   22560    21635    21636 1
   22561    21635    21684 1
   22562    21635    21685 1
   22563    21636    21637 1
   22564    21636    21643 1
   22565    21636    21686 1
   22566    21637    21638 1
   22567    21637    21687 1
   22568    21637    21688 1
   22569    21638    21639 1
   22570    21638    21689 1
   22571    21638    21690 1
   22572    21639    21640 1
   22573    21639    21691 1
   22574    21639    21692 1
   22575    21640    21641 1
   22576    21640    21693 1
   22577    21640    21694 1
   22578    21641    21642 1
   22579    21641    21695 1
   22580    21641    21696 1
   22581    21642    21697 1
   22582    21642    21698 1
   22583    21642    21699 1
   22584    21643    21644 1
   22585    21643    21700 1
   22586    21643    21701 1
   22587    21644    21645 1
   22588    21644    21702 1
   22589    21644    21703 1
   22590    21645    21646 1
   22591    21645    21704 1
   22592    21645    21705 1
   22593    21646    21647 1
   22594    21646    21706 1
   22595    21646    21707 1
   22596    21647    21648 1
   22597    21647    21708 1
   22598    21647    21709 1
   22599    21648    21649 1
   22600    21648    21710 1
   22601    21648    21711 1
   22602    21649    21650 1
   22603    21649    21712 1
   22604    21649    21713 1
   22605    21650    21714 1
   22606    21650    21715 1
   22607    21650    21716 1
   22608    21717    21718 1
   22609    21717    21724 1
   22610    21717    21756 1
   22611    21718    21719 1
   22612    21718    21722 1
   22613    21719    21720 1
   22614    21719    21723 1
   22615    21720    21721 1
   22616    21721    21722 1
   22617    21721    21732 1
   22618    21722    21728 1
   22619    21723    21724 1
   22620    21723    21727 1
   22621    21724    21725 1
   22622    21725    21726 1
   22623    21725    21729 1
   22624    21726    21727 1
   22625    21730    21731 1
   22626    21730    21738 1
   22627    21731    21732 1
   22628    21731    21739 1
   22629    21732    21733 1
   22630    21733    21734 1
   22631    21733    21737 1
   22632    21734    21735 1
   22633    21735    21736 1
   22634    21736    21737 1
   22635    21737    21738 1
   22636    21738    21848 1
   22637    21740    21741 1
   22638    21740    21773 1
   22639    21740    21774 1
   22640    21740    21775 1
   22641    21741    21742 1
   22642    21741    21776 1
   22643    21741    21777 1
   22644    21742    21743 1
   22645    21742    21778 1
   22646    21742    21779 1
   22647    21743    21744 1
   22648    21743    21780 1
   22649    21743    21781 1
   22650    21744    21745 1
   22651    21744    21782 1
   22652    21744    21783 1
   22653    21745    21746 1
   22654    21745    21784 1
   22655    21745    21785 1
   22656    21746    21747 1
   22657    21746    21786 1
   22658    21746    21787 1
   22659    21747    21748 1
   22660    21747    21788 1
   22661    21747    21789 1
   22662    21748    21749 1
   22663    21748    21755 1
   22664    21748    21790 1
   22665    21749    21750 1
   22666    21749    21791 1
   22667    21749    21792 1
   22668    21750    21751 1
   22669    21750    21793 1
   22670    21750    21794 1
   22671    21751    21752 1
   22672    21751    21795 1
   22673    21751    21796 1
   22674    21752    21753 1
   22675    21752    21797 1
   22676    21752    21798 1
   22677    21753    21754 1
   22678    21753    21799 1
   22679    21753    21800 1
   22680    21754    21801 1
   22681    21754    21802 1
   22682    21754    21803 1
   22683    21755    21756 1
   22684    21755    21804 1
   22685    21755    21805 1
   22686    21756    21757 1
   22687    21757    21758 1
   22688    21757    21806 1
   22689    21757    21807 1
   22690    21758    21759 1
   22691    21758    21765 1
   22692    21758    21808 1
   22693    21759    21760 1
   22694    21759    21809 1
   22695    21759    21810 1
   22696    21760    21761 1
   22697    21760    21811 1
   22698    21760    21812 1
   22699    21761    21762 1
   22700    21761    21813 1
   22701    21761    21814 1
   22702    21762    21763 1
   22703    21762    21815 1
   22704    21762    21816 1
   22705    21763    21764 1
   22706    21763    21817 1
   22707    21763    21818 1
   22708    21764    21819 1
   22709    21764    21820 1
   22710    21764    21821 1
   22711    21765    21766 1
   22712    21765    21822 1
   22713    21765    21823 1
   22714    21766    21767 1
   22715    21766    21824 1
   22716    21766    21825 1
   22717    21767    21768 1
   22718    21767    21826 1
   22719    21767    21827 1
   22720    21768    21769 1
   22721    21768    21828 1
   22722    21768    21829 1
   22723    21769    21770 1
   22724    21769    21830 1
   22725    21769    21831 1
   22726    21770    21771 1
   22727    21770    21832 1
   22728    21770    21833 1
   22729    21771    21772 1
   22730    21771    21834 1
   22731    21771    21835 1
   22732    21772    21836 1
   22733    21772    21837 1
   22734    21772    21838 1
   22735    21839    21840 1
   22736    21839    21846 1
   22737    21839    21878 1
   22738    21840    21841 1
   22739    21840    21844 1
   22740    21841    21842 1
   22741    21841    21845 1
   22742    21842    21843 1
   22743    21843    21844 1
   22744    21843    21854 1
   22745    21844    21850 1
   22746    21845    21846 1
   22747    21845    21849 1
   22748    21846    21847 1
   22749    21847    21848 1
   22750    21847    21851 1
   22751    21848    21849 1
   22752    21852    21853 1
   22753    21852    21860 1
   22754    21853    21854 1
   22755    21853    21861 1
   22756    21854    21855 1
   22757    21855    21856 1
   22758    21855    21859 1
   22759    21856    21857 1
   22760    21857    21858 1
   22761    21858    21859 1
   22762    21859    21860 1
   22763    21860    21970 1
   22764    21862    21863 1
   22765    21862    21895 1
   22766    21862    21896 1
   22767    21862    21897 1
   22768    21863    21864 1
   22769    21863    21898 1
   22770    21863    21899 1
   22771    21864    21865 1
   22772    21864    21900 1
   22773    21864    21901 1
   22774    21865    21866 1
   22775    21865    21902 1
   22776    21865    21903 1
   22777    21866    21867 1
   22778    21866    21904 1
   22779    21866    21905 1
   22780    21867    21868 1
   22781    21867    21906 1
   22782    21867    21907 1
   22783    21868    21869 1
   22784    21868    21908 1
   22785    21868    21909 1
   22786    21869    21870 1
   22787    21869    21910 1
   22788    21869    21911 1
   22789    21870    21871 1
   22790    21870    21877 1
   22791    21870    21912 1
   22792    21871    21872 1
   22793    21871    21913 1
   22794    21871    21914 1
   22795    21872    21873 1
   22796    21872    21915 1
   22797    21872    21916 1
   22798    21873    21874 1
   22799    21873    21917 1
   22800    21873    21918 1
   22801    21874    21875 1
   22802    21874    21919 1
   22803    21874    21920 1
   22804    21875    21876 1
   22805    21875    21921 1
   22806    21875    21922 1
   22807    21876    21923 1
   22808    21876    21924 1
   22809    21876    21925 1
   22810    21877    21878 1
   22811    21877    21926 1
   22812    21877    21927 1
   22813    21878    21879 1
   22814    21879    21880 1
   22815    21879    21928 1
   22816    21879    21929 1
   22817    21880    21881 1
   22818    21880    21887 1
   22819    21880    21930 1
   22820    21881    21882 1
   22821    21881    21931 1
   22822    21881    21932 1
   22823    21882    21883 1
   22824    21882    21933 1
   22825    21882    21934 1
   22826    21883    21884 1
   22827    21883    21935 1
   22828    21883    21936 1
   22829    21884    21885 1
   22830    21884    21937 1
   22831    21884    21938 1
   22832    21885    21886 1
   22833    21885    21939 1
   22834    21885    21940 1
   22835    21886    21941 1
   22836    21886    21942 1
   22837    21886    21943 1
   22838    21887    21888 1
   22839    21887    21944 1
   22840    21887    21945 1
   22841    21888    21889 1
   22842    21888    21946 1
   22843    21888    21947 1
   22844    21889    21890 1
   22845    21889    21948 1
   22846    21889    21949 1
   22847    21890    21891 1
   22848    21890    21950 1
   22849    21890    21951 1
   22850    21891    21892 1
   22851    21891    21952 1
   22852    21891    21953 1
   22853    21892    21893 1
   22854    21892    21954 1
   22855    21892    21955 1
   22856    21893    21894 1
   22857    21893    21956 1
   22858    21893    21957 1
   22859    21894    21958 1
   22860    21894    21959 1
   22861    21894    21960 1
   22862    21961    21962 1
   22863    21961    21968 1
   22864    21961    22000 1
   22865    21962    21963 1
   22866    21962    21966 1
   22867    21963    21964 1
   22868    21963    21967 1
   22869    21964    21965 1
   22870    21965    21966 1
   22871    21965    21976 1
   22872    21966    21972 1
   22873    21967    21968 1
   22874    21967    21971 1
   22875    21968    21969 1
   22876    21969    21970 1
   22877    21969    21973 1
   22878    21970    21971 1
   22879    21974    21975 1
   22880    21974    21982 1
   22881    21975    21976 1
   22882    21975    21983 1
   22883    21976    21977 1
   22884    21977    21978 1
   22885    21977    21981 1
   22886    21978    21979 1
   22887    21979    21980 1
   22888    21980    21981 1
   22889    21981    21982 1
   22890    21982    22092 1
   22891    21984    21985 1
   22892    21984    22017 1
   22893    21984    22018 1
   22894    21984    22019 1
   22895    21985    21986 1
   22896    21985    22020 1
   22897    21985    22021 1
   22898    21986    21987 1
   22899    21986    22022 1
   22900    21986    22023 1
   22901    21987    21988 1
   22902    21987    22024 1
   22903    21987    22025 1
   22904    21988    21989 1
   22905    21988    22026 1
   22906    21988    22027 1
   22907    21989    21990 1
   22908    21989    22028 1
   22909    21989    22029 1
   22910    21990    21991 1
   22911    21990    22030 1
   22912    21990    22031 1
   22913    21991    21992 1
   22914    21991    22032 1
   22915    21991    22033 1
   22916    21992    21993 1
   22917    21992    21999 1
   22918    21992    22034 1
   22919    21993    21994 1
   22920    21993    22035 1
   22921    21993    22036 1
   22922    21994    21995 1
   22923    21994    22037 1
   22924    21994    22038 1
   22925    21995    21996 1
   22926    21995    22039 1
   22927    21995    22040 1
   22928    21996    21997 1
   22929    21996    22041 1
   22930    21996    22042 1
   22931    21997    21998 1
   22932    21997    22043 1
   22933    21997    22044 1
   22934    21998    22045 1
   22935    21998    22046 1
   22936    21998    22047 1
   22937    21999    22000 1
   22938    21999    22048 1
   22939    21999    22049 1
   22940    22000    22001 1
   22941    22001    22002 1
   22942    22001    22050 1
   22943    22001    22051 1
   22944    22002    22003 1
   22945    22002    22009 1
   22946    22002    22052 1
   22947    22003    22004 1
   22948    22003    22053 1
   22949    22003    22054 1
   22950    22004    22005 1
   22951    22004    22055 1
   22952    22004    22056 1
   22953    22005    22006 1
   22954    22005    22057 1
   22955    22005    22058 1
   22956    22006    22007 1
   22957    22006    22059 1
   22958    22006    22060 1
   22959    22007    22008 1
   22960    22007    22061 1
   22961    22007    22062 1
   22962    22008    22063 1
   22963    22008    22064 1
   22964    22008    22065 1
   22965    22009    22010 1
   22966    22009    22066 1
   22967    22009    22067 1
   22968    22010    22011 1
   22969    22010    22068 1
   22970    22010    22069 1
   22971    22011    22012 1
   22972    22011    22070 1
   22973    22011    22071 1
   22974    22012    22013 1
   22975    22012    22072 1
   22976    22012    22073 1
   22977    22013    22014 1
   22978    22013    22074 1
   22979    22013    22075 1
   22980    22014    22015 1
   22981    22014    22076 1
   22982    22014    22077 1
   22983    22015    22016 1
   22984    22015    22078 1
   22985    22015    22079 1
   22986    22016    22080 1
   22987    22016    22081 1
   22988    22016    22082 1
   22989    22083    22084 1
   22990    22083    22090 1
   22991    22083    22122 1
   22992    22084    22085 1
   22993    22084    22088 1
   22994    22085    22086 1
   22995    22085    22089 1
   22996    22086    22087 1
   22997    22087    22088 1
   22998    22087    22098 1
   22999    22088    22094 1
   23000    22089    22090 1
   23001    22089    22093 1
   23002    22090    22091 1
   23003    22091    22092 1
   23004    22091    22095 1
   23005    22092    22093 1
   23006    22096    22097 1
   23007    22096    22104 1
   23008    22097    22098 1
   23009    22097    22105 1
   23010    22098    22099 1
   23011    22099    22100 1
   23012    22099    22103 1
   23013    22100    22101 1
   23014    22101    22102 1
   23015    22102    22103 1
   23016    22103    22104 1
   23017    22104    22214 1
   23018    22106    22107 1
   23019    22106    22139 1
   23020    22106    22140 1
   23021    22106    22141 1
   23022    22107    22108 1
   23023    22107    22142 1
   23024    22107    22143 1
   23025    22108    22109 1
   23026    22108    22144 1
   23027    22108    22145 1
   23028    22109    22110 1
   23029    22109    22146 1
   23030    22109    22147 1
   23031    22110    22111 1
   23032    22110    22148 1
   23033    22110    22149 1
   23034    22111    22112 1
   23035    22111    22150 1
   23036    22111    22151 1
   23037    22112    22113 1
   23038    22112    22152 1
   23039    22112    22153 1
   23040    22113    22114 1
   23041    22113    22154 1
   23042    22113    22155 1
   23043    22114    22115 1
   23044    22114    22121 1
   23045    22114    22156 1
   23046    22115    22116 1
   23047    22115    22157 1
   23048    22115    22158 1
   23049    22116    22117 1
   23050    22116    22159 1
   23051    22116    22160 1
   23052    22117    22118 1
   23053    22117    22161 1
   23054    22117    22162 1
   23055    22118    22119 1
   23056    22118    22163 1
   23057    22118    22164 1
   23058    22119    22120 1
   23059    22119    22165 1
   23060    22119    22166 1
   23061    22120    22167 1
   23062    22120    22168 1
   23063    22120    22169 1
   23064    22121    22122 1
   23065    22121    22170 1
   23066    22121    22171 1
   23067    22122    22123 1
   23068    22123    22124 1
   23069    22123    22172 1
   23070    22123    22173 1
   23071    22124    22125 1
   23072    22124    22131 1
   23073    22124    22174 1
   23074    22125    22126 1
   23075    22125    22175 1
   23076    22125    22176 1
   23077    22126    22127 1
   23078    22126    22177 1
   23079    22126    22178 1
   23080    22127    22128 1
   23081    22127    22179 1
   23082    22127    22180 1
   23083    22128    22129 1
   23084    22128    22181 1
   23085    22128    22182 1
   23086    22129    22130 1
   23087    22129    22183 1
   23088    22129    22184 1
   23089    22130    22185 1
   23090    22130    22186 1
   23091    22130    22187 1
   23092    22131    22132 1
   23093    22131    22188 1
   23094    22131    22189 1
   23095    22132    22133 1
   23096    22132    22190 1
   23097    22132    22191 1
   23098    22133    22134 1
   23099    22133    22192 1
   23100    22133    22193 1
   23101    22134    22135 1
   23102    22134    22194 1
   23103    22134    22195 1
   23104    22135    22136 1
   23105    22135    22196 1
   23106    22135    22197 1
   23107    22136    22137 1
   23108    22136    22198 1
   23109    22136    22199 1
   23110    22137    22138 1
   23111    22137    22200 1
   23112    22137    22201 1
   23113    22138    22202 1
   23114    22138    22203 1
   23115    22138    22204 1
   23116    22205    22206 1
   23117    22205    22212 1
   23118    22205    22244 1
   23119    22206    22207 1
   23120    22206    22210 1
   23121    22207    22208 1
   23122    22207    22211 1
   23123    22208    22209 1
   23124    22209    22210 1
   23125    22209    22220 1
   23126    22210    22216 1
   23127    22211    22212 1
   23128    22211    22215 1
   23129    22212    22213 1
   23130    22213    22214 1
   23131    22213    22217 1
   23132    22214    22215 1
   23133    22218    22219 1
   23134    22218    22226 1
   23135    22219    22220 1
   23136    22219    22227 1
   23137    22220    22221 1
   23138    22221    22222 1
   23139    22221    22225 1
   23140    22222    22223 1
   23141    22223    22224 1
   23142    22224    22225 1
   23143    22225    22226 1
   23144    22226    22336 1
   23145    22228    22229 1
   23146    22228    22261 1
   23147    22228    22262 1
   23148    22228    22263 1
   23149    22229    22230 1
   23150    22229    22264 1
   23151    22229    22265 1
   23152    22230    22231 1
   23153    22230    22266 1
   23154    22230    22267 1
   23155    22231    22232 1
   23156    22231    22268 1
   23157    22231    22269 1
   23158    22232    22233 1
   23159    22232    22270 1
   23160    22232    22271 1
   23161    22233    22234 1
   23162    22233    22272 1
   23163    22233    22273 1
   23164    22234    22235 1
   23165    22234    22274 1
   23166    22234    22275 1
   23167    22235    22236 1
   23168    22235    22276 1
   23169    22235    22277 1
   23170    22236    22237 1
   23171    22236    22243 1
   23172    22236    22278 1
   23173    22237    22238 1
   23174    22237    22279 1
   23175    22237    22280 1
   23176    22238    22239 1
   23177    22238    22281 1
   23178    22238    22282 1
   23179    22239    22240 1
   23180    22239    22283 1
   23181    22239    22284 1
   23182    22240    22241 1
   23183    22240    22285 1
   23184    22240    22286 1
   23185    22241    22242 1
   23186    22241    22287 1
   23187    22241    22288 1
   23188    22242    22289 1
   23189    22242    22290 1
   23190    22242    22291 1
   23191    22243    22244 1
   23192    22243    22292 1
   23193    22243    22293 1
   23194    22244    22245 1
   23195    22245    22246 1
   23196    22245    22294 1
   23197    22245    22295 1
   23198    22246    22247 1
   23199    22246    22253 1
   23200    22246    22296 1
   23201    22247    22248 1
   23202    22247    22297 1
   23203    22247    22298 1
   23204    22248    22249 1
   23205    22248    22299 1
   23206    22248    22300 1
   23207    22249    22250 1
   23208    22249    22301 1
   23209    22249    22302 1
   23210    22250    22251 1
   23211    22250    22303 1
   23212    22250    22304 1
   23213    22251    22252 1
   23214    22251    22305 1
   23215    22251    22306 1
   23216    22252    22307 1
   23217    22252    22308 1
   23218    22252    22309 1
   23219    22253    22254 1
   23220    22253    22310 1
   23221    22253    22311 1
   23222    22254    22255 1
   23223    22254    22312 1
   23224    22254    22313 1
   23225    22255    22256 1
   23226    22255    22314 1
   23227    22255    22315 1
   23228    22256    22257 1
   23229    22256    22316 1
   23230    22256    22317 1
   23231    22257    22258 1
   23232    22257    22318 1
   23233    22257    22319 1
   23234    22258    22259 1
   23235    22258    22320 1
   23236    22258    22321 1
   23237    22259    22260 1
   23238    22259    22322 1
   23239    22259    22323 1
   23240    22260    22324 1
   23241    22260    22325 1
   23242    22260    22326 1
   23243    22327    22328 1
   23244    22327    22334 1
   23245    22327    22366 1
   23246    22328    22329 1
   23247    22328    22332 1
   23248    22329    22330 1
   23249    22329    22333 1
   23250    22330    22331 1
   23251    22331    22332 1
   23252    22331    22342 1
   23253    22332    22338 1
   23254    22333    22334 1
   23255    22333    22337 1
   23256    22334    22335 1
   23257    22335    22336 1
   23258    22335    22339 1
   23259    22336    22337 1
   23260    22340    22341 1
   23261    22340    22348 1
   23262    22341    22342 1
   23263    22341    22349 1
   23264    22342    22343 1
   23265    22343    22344 1
   23266    22343    22347 1
   23267    22344    22345 1
   23268    22345    22346 1
   23269    22346    22347 1
   23270    22347    22348 1
   23271    22348    22458 1
   23272    22350    22351 1
   23273    22350    22383 1
   23274    22350    22384 1
   23275    22350    22385 1
   23276    22351    22352 1
   23277    22351    22386 1
   23278    22351    22387 1
   23279    22352    22353 1
   23280    22352    22388 1
   23281    22352    22389 1
   23282    22353    22354 1
   23283    22353    22390 1
   23284    22353    22391 1
   23285    22354    22355 1
   23286    22354    22392 1
   23287    22354    22393 1
   23288    22355    22356 1
   23289    22355    22394 1
   23290    22355    22395 1
   23291    22356    22357 1
   23292    22356    22396 1
   23293    22356    22397 1
   23294    22357    22358 1
   23295    22357    22398 1
   23296    22357    22399 1
   23297    22358    22359 1
   23298    22358    22365 1
   23299    22358    22400 1
   23300    22359    22360 1
   23301    22359    22401 1
   23302    22359    22402 1
   23303    22360    22361 1
   23304    22360    22403 1
   23305    22360    22404 1
   23306    22361    22362 1
   23307    22361    22405 1
   23308    22361    22406 1
   23309    22362    22363 1
   23310    22362    22407 1
   23311    22362    22408 1
   23312    22363    22364 1
   23313    22363    22409 1
   23314    22363    22410 1
   23315    22364    22411 1
   23316    22364    22412 1
   23317    22364    22413 1
   23318    22365    22366 1
   23319    22365    22414 1
   23320    22365    22415 1
   23321    22366    22367 1
   23322    22367    22368 1
   23323    22367    22416 1
   23324    22367    22417 1
   23325    22368    22369 1
   23326    22368    22375 1
   23327    22368    22418 1
   23328    22369    22370 1
   23329    22369    22419 1
   23330    22369    22420 1
   23331    22370    22371 1
   23332    22370    22421 1
   23333    22370    22422 1
   23334    22371    22372 1
   23335    22371    22423 1
   23336    22371    22424 1
   23337    22372    22373 1
   23338    22372    22425 1
   23339    22372    22426 1
   23340    22373    22374 1
   23341    22373    22427 1
   23342    22373    22428 1
   23343    22374    22429 1
   23344    22374    22430 1
   23345    22374    22431 1
   23346    22375    22376 1
   23347    22375    22432 1
   23348    22375    22433 1
   23349    22376    22377 1
   23350    22376    22434 1
   23351    22376    22435 1
   23352    22377    22378 1
   23353    22377    22436 1
   23354    22377    22437 1
   23355    22378    22379 1
   23356    22378    22438 1
   23357    22378    22439 1
   23358    22379    22380 1
   23359    22379    22440 1
   23360    22379    22441 1
   23361    22380    22381 1
   23362    22380    22442 1
   23363    22380    22443 1
   23364    22381    22382 1
   23365    22381    22444 1
   23366    22381    22445 1
   23367    22382    22446 1
   23368    22382    22447 1
   23369    22382    22448 1
   23370    22449    22450 1
   23371    22449    22456 1
   23372    22449    22488 1
   23373    22450    22451 1
   23374    22450    22454 1
   23375    22451    22452 1
   23376    22451    22455 1
   23377    22452    22453 1
   23378    22453    22454 1
   23379    22453    22464 1
   23380    22454    22460 1
   23381    22455    22456 1
   23382    22455    22459 1
   23383    22456    22457 1
   23384    22457    22458 1
   23385    22457    22461 1
   23386    22458    22459 1
   23387    22462    22463 1
   23388    22462    22470 1
   23389    22463    22464 1
   23390    22463    22471 1
   23391    22464    22465 1
   23392    22465    22466 1
   23393    22465    22469 1
   23394    22466    22467 1
   23395    22467    22468 1
   23396    22468    22469 1
   23397    22469    22470 1
   23398    22470    22580 1
   23399    22472    22473 1
   23400    22472    22505 1
   23401    22472    22506 1
   23402    22472    22507 1
   23403    22473    22474 1
   23404    22473    22508 1
   23405    22473    22509 1
   23406    22474    22475 1
   23407    22474    22510 1
   23408    22474    22511 1
   23409    22475    22476 1
   23410    22475    22512 1
   23411    22475    22513 1
   23412    22476    22477 1
   23413    22476    22514 1
   23414    22476    22515 1
   23415    22477    22478 1
   23416    22477    22516 1
   23417    22477    22517 1
   23418    22478    22479 1
   23419    22478    22518 1
   23420    22478    22519 1
   23421    22479    22480 1
   23422    22479    22520 1
   23423    22479    22521 1
   23424    22480    22481 1
   23425    22480    22487 1
   23426    22480    22522 1
   23427    22481    22482 1
   23428    22481    22523 1
   23429    22481    22524 1
   23430    22482    22483 1
   23431    22482    22525 1
   23432    22482    22526 1
   23433    22483    22484 1
   23434    22483    22527 1
   23435    22483    22528 1
   23436    22484    22485 1
   23437    22484    22529 1
   23438    22484    22530 1
   23439    22485    22486 1
   23440    22485    22531 1
   23441    22485    22532 1
   23442    22486    22533 1
   23443    22486    22534 1
   23444    22486    22535 1
   23445    22487    22488 1
   23446    22487    22536 1
   23447    22487    22537 1
   23448    22488    22489 1
   23449    22489    22490 1
   23450    22489    22538 1
   23451    22489    22539 1
   23452    22490    22491 1
   23453    22490    22497 1
   23454    22490    22540 1
   23455    22491    22492 1
   23456    22491    22541 1
   23457    22491    22542 1
   23458    22492    22493 1
   23459    22492    22543 1
   23460    22492    22544 1
   23461    22493    22494 1
   23462    22493    22545 1
   23463    22493    22546 1
   23464    22494    22495 1
   23465    22494    22547 1
   23466    22494    22548 1
   23467    22495    22496 1
   23468    22495    22549 1
   23469    22495    22550 1
   23470    22496    22551 1
   23471    22496    22552 1
   23472    22496    22553 1
   23473    22497    22498 1
   23474    22497    22554 1
   23475    22497    22555 1
   23476    22498    22499 1
   23477    22498    22556 1
   23478    22498    22557 1
   23479    22499    22500 1
   23480    22499    22558 1
   23481    22499    22559 1
   23482    22500    22501 1
   23483    22500    22560 1
   23484    22500    22561 1
   23485    22501    22502 1
   23486    22501    22562 1
   23487    22501    22563 1
   23488    22502    22503 1
   23489    22502    22564 1
   23490    22502    22565 1
   23491    22503    22504 1
   23492    22503    22566 1
   23493    22503    22567 1
   23494    22504    22568 1
   23495    22504    22569 1
   23496    22504    22570 1
   23497    22571    22572 1
   23498    22571    22578 1
   23499    22571    22610 1
   23500    22572    22573 1
   23501    22572    22576 1
   23502    22573    22574 1
   23503    22573    22577 1
   23504    22574    22575 1
   23505    22575    22576 1
   23506    22575    22586 1
   23507    22576    22582 1
   23508    22577    22578 1
   23509    22577    22581 1
   23510    22578    22579 1
   23511    22579    22580 1
   23512    22579    22583 1
   23513    22580    22581 1
   23514    22584    22585 1
   23515    22584    22592 1
   23516    22585    22586 1
   23517    22585    22593 1
   23518    22586    22587 1
   23519    22587    22588 1
   23520    22587    22591 1
   23521    22588    22589 1
   23522    22589    22590 1
   23523    22590    22591 1
   23524    22591    22592 1
   23525    22592    22702 1
   23526    22594    22595 1
   23527    22594    22627 1
   23528    22594    22628 1
   23529    22594    22629 1
   23530    22595    22596 1
   23531    22595    22630 1
   23532    22595    22631 1
   23533    22596    22597 1
   23534    22596    22632 1
   23535    22596    22633 1
   23536    22597    22598 1
   23537    22597    22634 1
   23538    22597    22635 1
   23539    22598    22599 1
   23540    22598    22636 1
   23541    22598    22637 1
   23542    22599    22600 1
   23543    22599    22638 1
   23544    22599    22639 1
   23545    22600    22601 1
   23546    22600    22640 1
   23547    22600    22641 1
   23548    22601    22602 1
   23549    22601    22642 1
   23550    22601    22643 1
   23551    22602    22603 1
   23552    22602    22609 1
   23553    22602    22644 1
   23554    22603    22604 1
   23555    22603    22645 1
   23556    22603    22646 1
   23557    22604    22605 1
   23558    22604    22647 1
   23559    22604    22648 1
   23560    22605    22606 1
   23561    22605    22649 1
   23562    22605    22650 1
   23563    22606    22607 1
   23564    22606    22651 1
   23565    22606    22652 1
   23566    22607    22608 1
   23567    22607    22653 1
   23568    22607    22654 1
   23569    22608    22655 1
   23570    22608    22656 1
   23571    22608    22657 1
   23572    22609    22610 1
   23573    22609    22658 1
   23574    22609    22659 1
   23575    22610    22611 1
   23576    22611    22612 1
   23577    22611    22660 1
   23578    22611    22661 1
   23579    22612    22613 1
   23580    22612    22619 1
   23581    22612    22662 1
   23582    22613    22614 1
   23583    22613    22663 1
   23584    22613    22664 1
   23585    22614    22615 1
   23586    22614    22665 1
   23587    22614    22666 1
   23588    22615    22616 1
   23589    22615    22667 1
   23590    22615    22668 1
   23591    22616    22617 1
   23592    22616    22669 1
   23593    22616    22670 1
   23594    22617    22618 1
   23595    22617    22671 1
   23596    22617    22672 1
   23597    22618    22673 1
   23598    22618    22674 1
   23599    22618    22675 1
   23600    22619    22620 1
   23601    22619    22676 1
   23602    22619    22677 1
   23603    22620    22621 1
   23604    22620    22678 1
   23605    22620    22679 1
   23606    22621    22622 1
   23607    22621    22680 1
   23608    22621    22681 1
   23609    22622    22623 1
   23610    22622    22682 1
   23611    22622    22683 1
   23612    22623    22624 1
   23613    22623    22684 1
   23614    22623    22685 1
   23615    22624    22625 1
   23616    22624    22686 1
   23617    22624    22687 1
   23618    22625    22626 1
   23619    22625    22688 1
   23620    22625    22689 1
   23621    22626    22690 1
   23622    22626    22691 1
   23623    22626    22692 1
   23624    22693    22694 1
   23625    22693    22700 1
   23626    22693    22732 1
   23627    22694    22695 1
   23628    22694    22698 1
   23629    22695    22696 1
   23630    22695    22699 1
   23631    22696    22697 1
   23632    22697    22698 1
   23633    22697    22708 1
   23634    22698    22704 1
   23635    22699    22700 1
   23636    22699    22703 1
   23637    22700    22701 1
   23638    22701    22702 1
   23639    22701    22705 1
   23640    22702    22703 1
   23641    22706    22707 1
   23642    22706    22714 1
   23643    22707    22708 1
   23644    22707    22715 1
   23645    22708    22709 1
   23646    22709    22710 1
   23647    22709    22713 1
   23648    22710    22711 1
   23649    22711    22712 1
   23650    22712    22713 1
   23651    22713    22714 1
   23652    22714    22824 1
   23653    22716    22717 1
   23654    22716    22749 1
   23655    22716    22750 1
   23656    22716    22751 1
   23657    22717    22718 1
   23658    22717    22752 1
   23659    22717    22753 1
   23660    22718    22719 1
   23661    22718    22754 1
   23662    22718    22755 1
   23663    22719    22720 1
   23664    22719    22756 1
   23665    22719    22757 1
   23666    22720    22721 1
   23667    22720    22758 1
   23668    22720    22759 1
   23669    22721    22722 1
   23670    22721    22760 1
   23671    22721    22761 1
   23672    22722    22723 1
   23673    22722    22762 1
   23674    22722    22763 1
   23675    22723    22724 1
   23676    22723    22764 1
   23677    22723    22765 1
   23678    22724    22725 1
   23679    22724    22731 1
   23680    22724    22766 1
   23681    22725    22726 1
   23682    22725    22767 1
   23683    22725    22768 1
   23684    22726    22727 1
   23685    22726    22769 1
   23686    22726    22770 1
   23687    22727    22728 1
   23688    22727    22771 1
   23689    22727    22772 1
   23690    22728    22729 1
   23691    22728    22773 1
   23692    22728    22774 1
   23693    22729    22730 1
   23694    22729    22775 1
   23695    22729    22776 1
   23696    22730    22777 1
   23697    22730    22778 1
   23698    22730    22779 1
   23699    22731    22732 1
   23700    22731    22780 1
   23701    22731    22781 1
   23702    22732    22733 1
   23703    22733    22734 1
   23704    22733    22782 1
   23705    22733    22783 1
   23706    22734    22735 1
   23707    22734    22741 1
   23708    22734    22784 1
   23709    22735    22736 1
   23710    22735    22785 1
   23711    22735    22786 1
   23712    22736    22737 1
   23713    22736    22787 1
   23714    22736    22788 1
   23715    22737    22738 1
   23716    22737    22789 1
   23717    22737    22790 1
   23718    22738    22739 1
   23719    22738    22791 1
   23720    22738    22792 1
   23721    22739    22740 1
   23722    22739    22793 1
   23723    22739    22794 1
   23724    22740    22795 1
   23725    22740    22796 1
   23726    22740    22797 1
   23727    22741    22742 1
   23728    22741    22798 1
   23729    22741    22799 1
   23730    22742    22743 1
   23731    22742    22800 1
   23732    22742    22801 1
   23733    22743    22744 1
   23734    22743    22802 1
   23735    22743    22803 1
   23736    22744    22745 1
   23737    22744    22804 1
   23738    22744    22805 1
   23739    22745    22746 1
   23740    22745    22806 1
   23741    22745    22807 1
   23742    22746    22747 1
   23743    22746    22808 1
   23744    22746    22809 1
   23745    22747    22748 1
   23746    22747    22810 1
   23747    22747    22811 1
   23748    22748    22812 1
   23749    22748    22813 1
   23750    22748    22814 1
   23751    22815    22816 1
   23752    22815    22822 1
   23753    22815    22854 1
   23754    22816    22817 1
   23755    22816    22820 1
   23756    22817    22818 1
   23757    22817    22821 1
   23758    22818    22819 1
   23759    22819    22820 1
   23760    22819    22830 1
   23761    22820    22826 1
   23762    22821    22822 1
   23763    22821    22825 1
   23764    22822    22823 1
   23765    22823    22824 1
   23766    22823    22827 1
   23767    22824    22825 1
   23768    22828    22829 1
   23769    22828    22836 1
   23770    22829    22830 1
   23771    22829    22837 1
   23772    22830    22831 1
   23773    22831    22832 1
   23774    22831    22835 1
   23775    22832    22833 1
   23776    22833    22834 1
   23777    22834    22835 1
   23778    22835    22836 1
   23779    22836    22946 1
   23780    22838    22839 1
   23781    22838    22871 1
   23782    22838    22872 1
   23783    22838    22873 1
   23784    22839    22840 1
   23785    22839    22874 1
   23786    22839    22875 1
   23787    22840    22841 1
   23788    22840    22876 1
   23789    22840    22877 1
   23790    22841    22842 1
   23791    22841    22878 1
   23792    22841    22879 1
   23793    22842    22843 1
   23794    22842    22880 1
   23795    22842    22881 1
   23796    22843    22844 1
   23797    22843    22882 1
   23798    22843    22883 1
   23799    22844    22845 1
   23800    22844    22884 1
   23801    22844    22885 1
   23802    22845    22846 1
   23803    22845    22886 1
   23804    22845    22887 1
   23805    22846    22847 1
   23806    22846    22853 1
   23807    22846    22888 1
   23808    22847    22848 1
   23809    22847    22889 1
   23810    22847    22890 1
   23811    22848    22849 1
   23812    22848    22891 1
   23813    22848    22892 1
   23814    22849    22850 1
   23815    22849    22893 1
   23816    22849    22894 1
   23817    22850    22851 1
   23818    22850    22895 1
   23819    22850    22896 1
   23820    22851    22852 1
   23821    22851    22897 1
   23822    22851    22898 1
   23823    22852    22899 1
   23824    22852    22900 1
   23825    22852    22901 1
   23826    22853    22854 1
   23827    22853    22902 1
   23828    22853    22903 1
   23829    22854    22855 1
   23830    22855    22856 1
   23831    22855    22904 1
   23832    22855    22905 1
   23833    22856    22857 1
   23834    22856    22863 1
   23835    22856    22906 1
   23836    22857    22858 1
   23837    22857    22907 1
   23838    22857    22908 1
   23839    22858    22859 1
   23840    22858    22909 1
   23841    22858    22910 1
   23842    22859    22860 1
   23843    22859    22911 1
   23844    22859    22912 1
   23845    22860    22861 1
   23846    22860    22913 1
   23847    22860    22914 1
   23848    22861    22862 1
   23849    22861    22915 1
   23850    22861    22916 1
   23851    22862    22917 1
   23852    22862    22918 1
   23853    22862    22919 1
   23854    22863    22864 1
   23855    22863    22920 1
   23856    22863    22921 1
   23857    22864    22865 1
   23858    22864    22922 1
   23859    22864    22923 1
   23860    22865    22866 1
   23861    22865    22924 1
   23862    22865    22925 1
   23863    22866    22867 1
   23864    22866    22926 1
   23865    22866    22927 1
   23866    22867    22868 1
   23867    22867    22928 1
   23868    22867    22929 1
   23869    22868    22869 1
   23870    22868    22930 1
   23871    22868    22931 1
   23872    22869    22870 1
   23873    22869    22932 1
   23874    22869    22933 1
   23875    22870    22934 1
   23876    22870    22935 1
   23877    22870    22936 1
   23878    22937    22938 1
   23879    22937    22944 1
   23880    22937    22976 1
   23881    22938    22939 1
   23882    22938    22942 1
   23883    22939    22940 1
   23884    22939    22943 1
   23885    22940    22941 1
   23886    22941    22942 1
   23887    22941    22952 1
   23888    22942    22948 1
   23889    22943    22944 1
   23890    22943    22947 1
   23891    22944    22945 1
   23892    22945    22946 1
   23893    22945    22949 1
   23894    22946    22947 1
   23895    22950    22951 1
   23896    22950    22958 1
   23897    22951    22952 1
   23898    22951    22959 1
   23899    22952    22953 1
   23900    22953    22954 1
   23901    22953    22957 1
   23902    22954    22955 1
   23903    22955    22956 1
   23904    22956    22957 1
   23905    22957    22958 1
   23906    22958    23068 1
   23907    22960    22961 1
   23908    22960    22993 1
   23909    22960    22994 1
   23910    22960    22995 1
   23911    22961    22962 1
   23912    22961    22996 1
   23913    22961    22997 1
   23914    22962    22963 1
   23915    22962    22998 1
   23916    22962    22999 1
   23917    22963    22964 1
   23918    22963    23000 1
   23919    22963    23001 1
   23920    22964    22965 1
   23921    22964    23002 1
   23922    22964    23003 1
   23923    22965    22966 1
   23924    22965    23004 1
   23925    22965    23005 1
   23926    22966    22967 1
   23927    22966    23006 1
   23928    22966    23007 1
   23929    22967    22968 1
   23930    22967    23008 1
   23931    22967    23009 1
   23932    22968    22969 1
   23933    22968    22975 1
   23934    22968    23010 1
   23935    22969    22970 1
   23936    22969    23011 1
   23937    22969    23012 1
   23938    22970    22971 1
   23939    22970    23013 1
   23940    22970    23014 1
   23941    22971    22972 1
   23942    22971    23015 1
   23943    22971    23016 1
   23944    22972    22973 1
   23945    22972    23017 1
   23946    22972    23018 1
   23947    22973    22974 1
   23948    22973    23019 1
   23949    22973    23020 1
   23950    22974    23021 1
   23951    22974    23022 1
   23952    22974    23023 1
   23953    22975    22976 1
   23954    22975    23024 1
   23955    22975    23025 1
   23956    22976    22977 1
   23957    22977    22978 1
   23958    22977    23026 1
   23959    22977    23027 1
   23960    22978    22979 1
   23961    22978    22985 1
   23962    22978    23028 1
   23963    22979    22980 1
   23964    22979    23029 1
   23965    22979    23030 1
   23966    22980    22981 1
   23967    22980    23031 1
   23968    22980    23032 1
   23969    22981    22982 1
   23970    22981    23033 1
   23971    22981    23034 1
   23972    22982    22983 1
   23973    22982    23035 1
   23974    22982    23036 1
   23975    22983    22984 1
   23976    22983    23037 1
   23977    22983    23038 1
   23978    22984    23039 1
   23979    22984    23040 1
   23980    22984    23041 1
   23981    22985    22986 1
   23982    22985    23042 1
   23983    22985    23043 1
   23984    22986    22987 1
   23985    22986    23044 1
   23986    22986    23045 1
   23987    22987    22988 1
   23988    22987    23046 1
   23989    22987    23047 1
   23990    22988    22989 1
   23991    22988    23048 1
   23992    22988    23049 1
   23993    22989    22990 1
   23994    22989    23050 1
   23995    22989    23051 1
   23996    22990    22991 1
   23997    22990    23052 1
   23998    22990    23053 1
   23999    22991    22992 1
   24000    22991    23054 1
   24001    22991    23055 1
   24002    22992    23056 1
   24003    22992    23057 1
   24004    22992    23058 1
   24005    23059    23060 1
   24006    23059    23066 1
   24007    23059    23098 1
   24008    23060    23061 1
   24009    23060    23064 1
   24010    23061    23062 1
   24011    23061    23065 1
   24012    23062    23063 1
   24013    23063    23064 1
   24014    23063    23074 1
   24015    23064    23070 1
   24016    23065    23066 1
   24017    23065    23069 1
   24018    23066    23067 1
   24019    23067    23068 1
   24020    23067    23071 1
   24021    23068    23069 1
   24022    23072    23073 1
   24023    23072    23080 1
   24024    23073    23074 1
   24025    23073    23081 1
   24026    23074    23075 1
   24027    23075    23076 1
   24028    23075    23079 1
   24029    23076    23077 1
   24030    23077    23078 1
   24031    23078    23079 1
   24032    23079    23080 1
   24033    23080    23190 1
   24034    23082    23083 1
   24035    23082    23115 1
   24036    23082    23116 1
   24037    23082    23117 1
   24038    23083    23084 1
   24039    23083    23118 1
   24040    23083    23119 1
   24041    23084    23085 1
   24042    23084    23120 1
   24043    23084    23121 1
   24044    23085    23086 1
   24045    23085    23122 1
   24046    23085    23123 1
   24047    23086    23087 1
   24048    23086    23124 1
   24049    23086    23125 1
   24050    23087    23088 1
   24051    23087    23126 1
   24052    23087    23127 1
   24053    23088    23089 1
   24054    23088    23128 1
   24055    23088    23129 1
   24056    23089    23090 1
   24057    23089    23130 1
   24058    23089    23131 1
   24059    23090    23091 1
   24060    23090    23097 1
   24061    23090    23132 1
   24062    23091    23092 1
   24063    23091    23133 1
   24064    23091    23134 1
   24065    23092    23093 1
   24066    23092    23135 1
   24067    23092    23136 1
   24068    23093    23094 1
   24069    23093    23137 1
   24070    23093    23138 1
   24071    23094    23095 1
   24072    23094    23139 1
   24073    23094    23140 1
   24074    23095    23096 1
   24075    23095    23141 1
   24076    23095    23142 1
   24077    23096    23143 1
   24078    23096    23144 1
   24079    23096    23145 1
   24080    23097    23098 1
   24081    23097    23146 1
   24082    23097    23147 1
   24083    23098    23099 1
   24084    23099    23100 1
   24085    23099    23148 1
   24086    23099    23149 1
   24087    23100    23101 1
   24088    23100    23107 1
   24089    23100    23150 1
   24090    23101    23102 1
   24091    23101    23151 1
   24092    23101    23152 1
   24093    23102    23103 1
   24094    23102    23153 1
   24095    23102    23154 1
   24096    23103    23104 1
   24097    23103    23155 1
   24098    23103    23156 1
   24099    23104    23105 1
   24100    23104    23157 1
   24101    23104    23158 1
   24102    23105    23106 1
   24103    23105    23159 1
   24104    23105    23160 1
   24105    23106    23161 1
   24106    23106    23162 1
   24107    23106    23163 1
   24108    23107    23108 1
   24109    23107    23164 1
   24110    23107    23165 1
   24111    23108    23109 1
   24112    23108    23166 1
   24113    23108    23167 1
   24114    23109    23110 1
   24115    23109    23168 1
   24116    23109    23169 1
   24117    23110    23111 1
   24118    23110    23170 1
   24119    23110    23171 1
   24120    23111    23112 1
   24121    23111    23172 1
   24122    23111    23173 1
   24123    23112    23113 1
   24124    23112    23174 1
   24125    23112    23175 1
   24126    23113    23114 1
   24127    23113    23176 1
   24128    23113    23177 1
   24129    23114    23178 1
   24130    23114    23179 1
   24131    23114    23180 1
   24132    23181    23182 1
   24133    23181    23188 1
   24134    23181    23220 1
   24135    23182    23183 1
   24136    23182    23186 1
   24137    23183    23184 1
   24138    23183    23187 1
   24139    23184    23185 1
   24140    23185    23186 1
   24141    23185    23196 1
   24142    23186    23192 1
   24143    23187    23188 1
   24144    23187    23191 1
   24145    23188    23189 1
   24146    23189    23190 1
   24147    23189    23193 1
   24148    23190    23191 1
   24149    23194    23195 1
   24150    23194    23202 1
   24151    23195    23196 1
   24152    23195    23203 1
   24153    23196    23197 1
   24154    23197    23198 1
   24155    23197    23201 1
   24156    23198    23199 1
   24157    23199    23200 1
   24158    23200    23201 1
   24159    23201    23202 1
   24160    23202    23312 1
   24161    23204    23205 1
   24162    23204    23237 1
   24163    23204    23238 1
   24164    23204    23239 1
   24165    23205    23206 1
   24166    23205    23240 1
   24167    23205    23241 1
   24168    23206    23207 1
   24169    23206    23242 1
   24170    23206    23243 1
   24171    23207    23208 1
   24172    23207    23244 1
   24173    23207    23245 1
   24174    23208    23209 1
   24175    23208    23246 1
   24176    23208    23247 1
   24177    23209    23210 1
   24178    23209    23248 1
   24179    23209    23249 1
   24180    23210    23211 1
   24181    23210    23250 1
   24182    23210    23251 1
   24183    23211    23212 1
   24184    23211    23252 1
   24185    23211    23253 1
   24186    23212    23213 1
   24187    23212    23219 1
   24188    23212    23254 1
   24189    23213    23214 1
   24190    23213    23255 1
   24191    23213    23256 1
   24192    23214    23215 1
   24193    23214    23257 1
   24194    23214    23258 1
   24195    23215    23216 1
   24196    23215    23259 1
   24197    23215    23260 1
   24198    23216    23217 1
   24199    23216    23261 1
   24200    23216    23262 1
   24201    23217    23218 1
   24202    23217    23263 1
   24203    23217    23264 1
   24204    23218    23265 1
   24205    23218    23266 1
   24206    23218    23267 1
   24207    23219    23220 1
   24208    23219    23268 1
   24209    23219    23269 1
   24210    23220    23221 1
   24211    23221    23222 1
   24212    23221    23270 1
   24213    23221    23271 1
   24214    23222    23223 1
   24215    23222    23229 1
   24216    23222    23272 1
   24217    23223    23224 1
   24218    23223    23273 1
   24219    23223    23274 1
   24220    23224    23225 1
   24221    23224    23275 1
   24222    23224    23276 1
   24223    23225    23226 1
   24224    23225    23277 1
   24225    23225    23278 1
   24226    23226    23227 1
   24227    23226    23279 1
   24228    23226    23280 1
   24229    23227    23228 1
   24230    23227    23281 1
   24231    23227    23282 1
   24232    23228    23283 1
   24233    23228    23284 1
   24234    23228    23285 1
   24235    23229    23230 1
   24236    23229    23286 1
   24237    23229    23287 1
   24238    23230    23231 1
   24239    23230    23288 1
   24240    23230    23289 1
   24241    23231    23232 1
   24242    23231    23290 1
   24243    23231    23291 1
   24244    23232    23233 1
   24245    23232    23292 1
   24246    23232    23293 1
   24247    23233    23234 1
   24248    23233    23294 1
   24249    23233    23295 1
   24250    23234    23235 1
   24251    23234    23296 1
   24252    23234    23297 1
   24253    23235    23236 1
   24254    23235    23298 1
   24255    23235    23299 1
   24256    23236    23300 1
   24257    23236    23301 1
   24258    23236    23302 1
   24259    23303    23304 1
   24260    23303    23310 1
   24261    23303    23342 1
   24262    23304    23305 1
   24263    23304    23308 1
   24264    23305    23306 1
   24265    23305    23309 1
   24266    23306    23307 1
   24267    23307    23308 1
   24268    23307    23318 1
   24269    23308    23314 1
   24270    23309    23310 1
   24271    23309    23313 1
   24272    23310    23311 1
   24273    23311    23312 1
   24274    23311    23315 1
   24275    23312    23313 1
   24276    23316    23317 1
   24277    23316    23324 1
   24278    23317    23318 1
   24279    23317    23325 1
   24280    23318    23319 1
   24281    23319    23320 1
   24282    23319    23323 1
   24283    23320    23321 1
   24284    23321    23322 1
   24285    23322    23323 1
   24286    23323    23324 1
   24287    23324    23434 1
   24288    23326    23327 1
   24289    23326    23359 1
   24290    23326    23360 1
   24291    23326    23361 1
   24292    23327    23328 1
   24293    23327    23362 1
   24294    23327    23363 1
   24295    23328    23329 1
   24296    23328    23364 1
   24297    23328    23365 1
   24298    23329    23330 1
   24299    23329    23366 1
   24300    23329    23367 1
   24301    23330    23331 1
   24302    23330    23368 1
   24303    23330    23369 1
   24304    23331    23332 1
   24305    23331    23370 1
   24306    23331    23371 1
   24307    23332    23333 1
   24308    23332    23372 1
   24309    23332    23373 1
   24310    23333    23334 1
   24311    23333    23374 1
   24312    23333    23375 1
   24313    23334    23335 1
   24314    23334    23341 1
   24315    23334    23376 1
   24316    23335    23336 1
   24317    23335    23377 1
   24318    23335    23378 1
   24319    23336    23337 1
   24320    23336    23379 1
   24321    23336    23380 1
   24322    23337    23338 1
   24323    23337    23381 1
   24324    23337    23382 1
   24325    23338    23339 1
   24326    23338    23383 1
   24327    23338    23384 1
   24328    23339    23340 1
   24329    23339    23385 1
   24330    23339    23386 1
   24331    23340    23387 1
   24332    23340    23388 1
   24333    23340    23389 1
   24334    23341    23342 1
   24335    23341    23390 1
   24336    23341    23391 1
   24337    23342    23343 1
   24338    23343    23344 1
   24339    23343    23392 1
   24340    23343    23393 1
   24341    23344    23345 1
   24342    23344    23351 1
   24343    23344    23394 1
   24344    23345    23346 1
   24345    23345    23395 1
   24346    23345    23396 1
   24347    23346    23347 1
   24348    23346    23397 1
   24349    23346    23398 1
   24350    23347    23348 1
   24351    23347    23399 1
   24352    23347    23400 1
   24353    23348    23349 1
   24354    23348    23401 1
   24355    23348    23402 1
   24356    23349    23350 1
   24357    23349    23403 1
   24358    23349    23404 1
   24359    23350    23405 1
   24360    23350    23406 1
   24361    23350    23407 1
   24362    23351    23352 1
   24363    23351    23408 1
   24364    23351    23409 1
   24365    23352    23353 1
   24366    23352    23410 1
   24367    23352    23411 1
   24368    23353    23354 1
   24369    23353    23412 1
   24370    23353    23413 1
   24371    23354    23355 1
   24372    23354    23414 1
   24373    23354    23415 1
   24374    23355    23356 1
   24375    23355    23416 1
   24376    23355    23417 1
   24377    23356    23357 1
   24378    23356    23418 1
   24379    23356    23419 1
   24380    23357    23358 1
   24381    23357    23420 1
   24382    23357    23421 1
   24383    23358    23422 1
   24384    23358    23423 1
   24385    23358    23424 1
   24386    23425    23426 1
   24387    23425    23432 1
   24388    23425    23464 1
   24389    23426    23427 1
   24390    23426    23430 1
   24391    23427    23428 1
   24392    23427    23431 1
   24393    23428    23429 1
   24394    23429    23430 1
   24395    23429    23440 1
   24396    23430    23436 1
   24397    23431    23432 1
   24398    23431    23435 1
   24399    23432    23433 1
   24400    23433    23434 1
   24401    23433    23437 1
   24402    23434    23435 1
   24403    23438    23439 1
   24404    23438    23446 1
   24405    23439    23440 1
   24406    23439    23447 1
   24407    23440    23441 1
   24408    23441    23442 1
   24409    23441    23445 1
   24410    23442    23443 1
   24411    23443    23444 1
   24412    23444    23445 1
   24413    23445    23446 1
   24414    23446    23556 1
   24415    23448    23449 1
   24416    23448    23481 1
   24417    23448    23482 1
   24418    23448    23483 1
   24419    23449    23450 1
   24420    23449    23484 1
   24421    23449    23485 1
   24422    23450    23451 1
   24423    23450    23486 1
   24424    23450    23487 1
   24425    23451    23452 1
   24426    23451    23488 1
   24427    23451    23489 1
   24428    23452    23453 1
   24429    23452    23490 1
   24430    23452    23491 1
   24431    23453    23454 1
   24432    23453    23492 1
   24433    23453    23493 1
   24434    23454    23455 1
   24435    23454    23494 1
   24436    23454    23495 1
   24437    23455    23456 1
   24438    23455    23496 1
   24439    23455    23497 1
   24440    23456    23457 1
   24441    23456    23463 1
   24442    23456    23498 1
   24443    23457    23458 1
   24444    23457    23499 1
   24445    23457    23500 1
   24446    23458    23459 1
   24447    23458    23501 1
   24448    23458    23502 1
   24449    23459    23460 1
   24450    23459    23503 1
   24451    23459    23504 1
   24452    23460    23461 1
   24453    23460    23505 1
   24454    23460    23506 1
   24455    23461    23462 1
   24456    23461    23507 1
   24457    23461    23508 1
   24458    23462    23509 1
   24459    23462    23510 1
   24460    23462    23511 1
   24461    23463    23464 1
   24462    23463    23512 1
   24463    23463    23513 1
   24464    23464    23465 1
   24465    23465    23466 1
   24466    23465    23514 1
   24467    23465    23515 1
   24468    23466    23467 1
   24469    23466    23473 1
   24470    23466    23516 1
   24471    23467    23468 1
   24472    23467    23517 1
   24473    23467    23518 1
   24474    23468    23469 1
   24475    23468    23519 1
   24476    23468    23520 1
   24477    23469    23470 1
   24478    23469    23521 1
   24479    23469    23522 1
   24480    23470    23471 1
   24481    23470    23523 1
   24482    23470    23524 1
   24483    23471    23472 1
   24484    23471    23525 1
   24485    23471    23526 1
   24486    23472    23527 1
   24487    23472    23528 1
   24488    23472    23529 1
   24489    23473    23474 1
   24490    23473    23530 1
   24491    23473    23531 1
   24492    23474    23475 1
   24493    23474    23532 1
   24494    23474    23533 1
   24495    23475    23476 1
   24496    23475    23534 1
   24497    23475    23535 1
   24498    23476    23477 1
   24499    23476    23536 1
   24500    23476    23537 1
   24501    23477    23478 1
   24502    23477    23538 1
   24503    23477    23539 1
   24504    23478    23479 1
   24505    23478    23540 1
   24506    23478    23541 1
   24507    23479    23480 1
   24508    23479    23542 1
   24509    23479    23543 1
   24510    23480    23544 1
   24511    23480    23545 1
   24512    23480    23546 1
   24513    23547    23548 1
   24514    23547    23554 1
   24515    23547    23586 1
   24516    23548    23549 1
   24517    23548    23552 1
   24518    23549    23550 1
   24519    23549    23553 1
   24520    23550    23551 1
   24521    23551    23552 1
   24522    23551    23562 1
   24523    23552    23558 1
   24524    23553    23554 1
   24525    23553    23557 1
   24526    23554    23555 1
   24527    23555    23556 1
   24528    23555    23559 1
   24529    23556    23557 1
   24530    23560    23561 1
   24531    23560    23568 1
   24532    23561    23562 1
   24533    23561    23569 1
   24534    23562    23563 1
   24535    23563    23564 1
   24536    23563    23567 1
   24537    23564    23565 1
   24538    23565    23566 1
   24539    23566    23567 1
   24540    23567    23568 1
   24541    23568    23678 1
   24542    23570    23571 1
   24543    23570    23603 1
   24544    23570    23604 1
   24545    23570    23605 1
   24546    23571    23572 1
   24547    23571    23606 1
   24548    23571    23607 1
   24549    23572    23573 1
   24550    23572    23608 1
   24551    23572    23609 1
   24552    23573    23574 1
   24553    23573    23610 1
   24554    23573    23611 1
   24555    23574    23575 1
   24556    23574    23612 1
   24557    23574    23613 1
   24558    23575    23576 1
   24559    23575    23614 1
   24560    23575    23615 1
   24561    23576    23577 1
   24562    23576    23616 1
   24563    23576    23617 1
   24564    23577    23578 1
   24565    23577    23618 1
   24566    23577    23619 1
   24567    23578    23579 1
   24568    23578    23585 1
   24569    23578    23620 1
   24570    23579    23580 1
   24571    23579    23621 1
   24572    23579    23622 1
   24573    23580    23581 1
   24574    23580    23623 1
   24575    23580    23624 1
   24576    23581    23582 1
   24577    23581    23625 1
   24578    23581    23626 1
   24579    23582    23583 1
   24580    23582    23627 1
   24581    23582    23628 1
   24582    23583    23584 1
   24583    23583    23629 1
   24584    23583    23630 1
   24585    23584    23631 1
   24586    23584    23632 1
   24587    23584    23633 1
   24588    23585    23586 1
   24589    23585    23634 1
   24590    23585    23635 1
   24591    23586    23587 1
   24592    23587    23588 1
   24593    23587    23636 1
   24594    23587    23637 1
   24595    23588    23589 1
   24596    23588    23595 1
   24597    23588    23638 1
   24598    23589    23590 1
   24599    23589    23639 1
   24600    23589    23640 1
   24601    23590    23591 1
   24602    23590    23641 1
   24603    23590    23642 1
   24604    23591    23592 1
   24605    23591    23643 1
   24606    23591    23644 1
   24607    23592    23593 1
   24608    23592    23645 1
   24609    23592    23646 1
   24610    23593    23594 1
   24611    23593    23647 1
   24612    23593    23648 1
   24613    23594    23649 1
   24614    23594    23650 1
   24615    23594    23651 1
   24616    23595    23596 1
   24617    23595    23652 1
   24618    23595    23653 1
   24619    23596    23597 1
   24620    23596    23654 1
   24621    23596    23655 1
   24622    23597    23598 1
   24623    23597    23656 1
   24624    23597    23657 1
   24625    23598    23599 1
   24626    23598    23658 1
   24627    23598    23659 1
   24628    23599    23600 1
   24629    23599    23660 1
   24630    23599    23661 1
   24631    23600    23601 1
   24632    23600    23662 1
   24633    23600    23663 1
   24634    23601    23602 1
   24635    23601    23664 1
   24636    23601    23665 1
   24637    23602    23666 1
   24638    23602    23667 1
   24639    23602    23668 1
   24640    23669    23670 1
   24641    23669    23676 1
   24642    23669    23708 1
   24643    23670    23671 1
   24644    23670    23674 1
   24645    23671    23672 1
   24646    23671    23675 1
   24647    23672    23673 1
   24648    23673    23674 1
   24649    23673    23684 1
   24650    23674    23680 1
   24651    23675    23676 1
   24652    23675    23679 1
   24653    23676    23677 1
   24654    23677    23678 1
   24655    23677    23681 1
   24656    23678    23679 1
   24657    23682    23683 1
   24658    23682    23690 1
   24659    23683    23684 1
   24660    23683    23691 1
   24661    23684    23685 1
   24662    23685    23686 1
   24663    23685    23689 1
   24664    23686    23687 1
   24665    23687    23688 1
   24666    23688    23689 1
   24667    23689    23690 1
   24668    23690    23800 1
   24669    23692    23693 1
   24670    23692    23725 1
   24671    23692    23726 1
   24672    23692    23727 1
   24673    23693    23694 1
   24674    23693    23728 1
   24675    23693    23729 1
   24676    23694    23695 1
   24677    23694    23730 1
   24678    23694    23731 1
   24679    23695    23696 1
   24680    23695    23732 1
   24681    23695    23733 1
   24682    23696    23697 1
   24683    23696    23734 1
   24684    23696    23735 1
   24685    23697    23698 1
   24686    23697    23736 1
   24687    23697    23737 1
   24688    23698    23699 1
   24689    23698    23738 1
   24690    23698    23739 1
   24691    23699    23700 1
   24692    23699    23740 1
   24693    23699    23741 1
   24694    23700    23701 1
   24695    23700    23707 1
   24696    23700    23742 1
   24697    23701    23702 1
   24698    23701    23743 1
   24699    23701    23744 1
   24700    23702    23703 1
   24701    23702    23745 1
   24702    23702    23746 1
   24703    23703    23704 1
   24704    23703    23747 1
   24705    23703    23748 1
   24706    23704    23705 1
   24707    23704    23749 1
   24708    23704    23750 1
   24709    23705    23706 1
   24710    23705    23751 1
   24711    23705    23752 1
   24712    23706    23753 1
   24713    23706    23754 1
   24714    23706    23755 1
   24715    23707    23708 1
   24716    23707    23756 1
   24717    23707    23757 1
   24718    23708    23709 1
   24719    23709    23710 1
   24720    23709    23758 1
   24721    23709    23759 1
   24722    23710    23711 1
   24723    23710    23717 1
   24724    23710    23760 1
   24725    23711    23712 1
   24726    23711    23761 1
   24727    23711    23762 1
   24728    23712    23713 1
   24729    23712    23763 1
   24730    23712    23764 1
   24731    23713    23714 1
   24732    23713    23765 1
   24733    23713    23766 1
   24734    23714    23715 1
   24735    23714    23767 1
   24736    23714    23768 1
   24737    23715    23716 1
   24738    23715    23769 1
   24739    23715    23770 1
   24740    23716    23771 1
   24741    23716    23772 1
   24742    23716    23773 1
   24743    23717    23718 1
   24744    23717    23774 1
   24745    23717    23775 1
   24746    23718    23719 1
   24747    23718    23776 1
   24748    23718    23777 1
   24749    23719    23720 1
   24750    23719    23778 1
   24751    23719    23779 1
   24752    23720    23721 1
   24753    23720    23780 1
   24754    23720    23781 1
   24755    23721    23722 1
   24756    23721    23782 1
   24757    23721    23783 1
   24758    23722    23723 1
   24759    23722    23784 1
   24760    23722    23785 1
   24761    23723    23724 1
   24762    23723    23786 1
   24763    23723    23787 1
   24764    23724    23788 1
   24765    23724    23789 1
   24766    23724    23790 1
   24767    23791    23792 1
   24768    23791    23798 1
   24769    23791    23830 1
   24770    23792    23793 1
   24771    23792    23796 1
   24772    23793    23794 1
   24773    23793    23797 1
   24774    23794    23795 1
   24775    23795    23796 1
   24776    23795    23806 1
   24777    23796    23802 1
   24778    23797    23798 1
   24779    23797    23801 1
   24780    23798    23799 1
   24781    23799    23800 1
   24782    23799    23803 1
   24783    23800    23801 1
   24784    23804    23805 1
   24785    23804    23812 1
   24786    23805    23806 1
   24787    23805    23813 1
   24788    23806    23807 1
   24789    23807    23808 1
   24790    23807    23811 1
   24791    23808    23809 1
   24792    23809    23810 1
   24793    23810    23811 1
   24794    23811    23812 1
   24795    23812    23922 1
   24796    23814    23815 1
   24797    23814    23847 1
   24798    23814    23848 1
   24799    23814    23849 1
   24800    23815    23816 1
   24801    23815    23850 1
   24802    23815    23851 1
   24803    23816    23817 1
   24804    23816    23852 1
   24805    23816    23853 1
   24806    23817    23818 1
   24807    23817    23854 1
   24808    23817    23855 1
   24809    23818    23819 1
   24810    23818    23856 1
   24811    23818    23857 1
   24812    23819    23820 1
   24813    23819    23858 1
   24814    23819    23859 1
   24815    23820    23821 1
   24816    23820    23860 1
   24817    23820    23861 1
   24818    23821    23822 1
   24819    23821    23862 1
   24820    23821    23863 1
   24821    23822    23823 1
   24822    23822    23829 1
   24823    23822    23864 1
   24824    23823    23824 1
   24825    23823    23865 1
   24826    23823    23866 1
   24827    23824    23825 1
   24828    23824    23867 1
   24829    23824    23868 1
   24830    23825    23826 1
   24831    23825    23869 1
   24832    23825    23870 1
   24833    23826    23827 1
   24834    23826    23871 1
   24835    23826    23872 1
   24836    23827    23828 1
   24837    23827    23873 1
   24838    23827    23874 1
   24839    23828    23875 1
   24840    23828    23876 1
   24841    23828    23877 1
   24842    23829    23830 1
   24843    23829    23878 1
   24844    23829    23879 1
   24845    23830    23831 1
   24846    23831    23832 1
   24847    23831    23880 1
   24848    23831    23881 1
   24849    23832    23833 1
   24850    23832    23839 1
   24851    23832    23882 1
   24852    23833    23834 1
   24853    23833    23883 1
   24854    23833    23884 1
   24855    23834    23835 1
   24856    23834    23885 1
   24857    23834    23886 1
   24858    23835    23836 1
   24859    23835    23887 1
   24860    23835    23888 1
   24861    23836    23837 1
   24862    23836    23889 1
   24863    23836    23890 1
   24864    23837    23838 1
   24865    23837    23891 1
   24866    23837    23892 1
   24867    23838    23893 1
   24868    23838    23894 1
   24869    23838    23895 1
   24870    23839    23840 1
   24871    23839    23896 1
   24872    23839    23897 1
   24873    23840    23841 1
   24874    23840    23898 1
   24875    23840    23899 1
   24876    23841    23842 1
   24877    23841    23900 1
   24878    23841    23901 1
   24879    23842    23843 1
   24880    23842    23902 1
   24881    23842    23903 1
   24882    23843    23844 1
   24883    23843    23904 1
   24884    23843    23905 1
   24885    23844    23845 1
   24886    23844    23906 1
   24887    23844    23907 1
   24888    23845    23846 1
   24889    23845    23908 1
   24890    23845    23909 1
   24891    23846    23910 1
   24892    23846    23911 1
   24893    23846    23912 1
   24894    23913    23914 1
   24895    23913    23920 1
   24896    23913    23952 1
   24897    23914    23915 1
   24898    23914    23918 1
   24899    23915    23916 1
   24900    23915    23919 1
   24901    23916    23917 1
   24902    23917    23918 1
   24903    23917    23928 1
   24904    23918    23924 1
   24905    23919    23920 1
   24906    23919    23923 1
   24907    23920    23921 1
   24908    23921    23922 1
   24909    23921    23925 1
   24910    23922    23923 1
   24911    23926    23927 1
   24912    23926    23934 1
   24913    23927    23928 1
   24914    23927    23935 1
   24915    23928    23929 1
   24916    23929    23930 1
   24917    23929    23933 1
   24918    23930    23931 1
   24919    23931    23932 1
   24920    23932    23933 1
   24921    23933    23934 1
   24922    23934    24044 1
   24923    23936    23937 1
   24924    23936    23969 1
   24925    23936    23970 1
   24926    23936    23971 1
   24927    23937    23938 1
   24928    23937    23972 1
   24929    23937    23973 1
   24930    23938    23939 1
   24931    23938    23974 1
   24932    23938    23975 1
   24933    23939    23940 1
   24934    23939    23976 1
   24935    23939    23977 1
   24936    23940    23941 1
   24937    23940    23978 1
   24938    23940    23979 1
   24939    23941    23942 1
   24940    23941    23980 1
   24941    23941    23981 1
   24942    23942    23943 1
   24943    23942    23982 1
   24944    23942    23983 1
   24945    23943    23944 1
   24946    23943    23984 1
   24947    23943    23985 1
   24948    23944    23945 1
   24949    23944    23951 1
   24950    23944    23986 1
   24951    23945    23946 1
   24952    23945    23987 1
   24953    23945    23988 1
   24954    23946    23947 1
   24955    23946    23989 1
   24956    23946    23990 1
   24957    23947    23948 1
   24958    23947    23991 1
   24959    23947    23992 1
   24960    23948    23949 1
   24961    23948    23993 1
   24962    23948    23994 1
   24963    23949    23950 1
   24964    23949    23995 1
   24965    23949    23996 1
   24966    23950    23997 1
   24967    23950    23998 1
   24968    23950    23999 1
   24969    23951    23952 1
   24970    23951    24000 1
   24971    23951    24001 1
   24972    23952    23953 1
   24973    23953    23954 1
   24974    23953    24002 1
   24975    23953    24003 1
   24976    23954    23955 1
   24977    23954    23961 1
   24978    23954    24004 1
   24979    23955    23956 1
   24980    23955    24005 1
   24981    23955    24006 1
   24982    23956    23957 1
   24983    23956    24007 1
   24984    23956    24008 1
   24985    23957    23958 1
   24986    23957    24009 1
   24987    23957    24010 1
   24988    23958    23959 1
   24989    23958    24011 1
   24990    23958    24012 1
   24991    23959    23960 1
   24992    23959    24013 1
   24993    23959    24014 1
   24994    23960    24015 1
   24995    23960    24016 1
   24996    23960    24017 1
   24997    23961    23962 1
   24998    23961    24018 1
   24999    23961    24019 1
   25000    23962    23963 1
   25001    23962    24020 1
   25002    23962    24021 1
   25003    23963    23964 1
   25004    23963    24022 1
   25005    23963    24023 1
   25006    23964    23965 1
   25007    23964    24024 1
   25008    23964    24025 1
   25009    23965    23966 1
   25010    23965    24026 1
   25011    23965    24027 1
   25012    23966    23967 1
   25013    23966    24028 1
   25014    23966    24029 1
   25015    23967    23968 1
   25016    23967    24030 1
   25017    23967    24031 1
   25018    23968    24032 1
   25019    23968    24033 1
   25020    23968    24034 1
   25021    24035    24036 1
   25022    24035    24042 1
   25023    24035    24074 1
   25024    24036    24037 1
   25025    24036    24040 1
   25026    24037    24038 1
   25027    24037    24041 1
   25028    24038    24039 1
   25029    24039    24040 1
   25030    24039    24050 1
   25031    24040    24046 1
   25032    24041    24042 1
   25033    24041    24045 1
   25034    24042    24043 1
   25035    24043    24044 1
   25036    24043    24047 1
   25037    24044    24045 1
   25038    24048    24049 1
   25039    24048    24056 1
   25040    24049    24050 1
   25041    24049    24057 1
   25042    24050    24051 1
   25043    24051    24052 1
   25044    24051    24055 1
   25045    24052    24053 1
   25046    24053    24054 1
   25047    24054    24055 1
   25048    24055    24056 1
   25049    24056    24166 1
   25050    24058    24059 1
   25051    24058    24091 1
   25052    24058    24092 1
   25053    24058    24093 1
   25054    24059    24060 1
   25055    24059    24094 1
   25056    24059    24095 1
   25057    24060    24061 1
   25058    24060    24096 1
   25059    24060    24097 1
   25060    24061    24062 1
   25061    24061    24098 1
   25062    24061    24099 1
   25063    24062    24063 1
   25064    24062    24100 1
   25065    24062    24101 1
   25066    24063    24064 1
   25067    24063    24102 1
   25068    24063    24103 1
   25069    24064    24065 1
   25070    24064    24104 1
   25071    24064    24105 1
   25072    24065    24066 1
   25073    24065    24106 1
   25074    24065    24107 1
   25075    24066    24067 1
   25076    24066    24073 1
   25077    24066    24108 1
   25078    24067    24068 1
   25079    24067    24109 1
   25080    24067    24110 1
   25081    24068    24069 1
   25082    24068    24111 1
   25083    24068    24112 1
   25084    24069    24070 1
   25085    24069    24113 1
   25086    24069    24114 1
   25087    24070    24071 1
   25088    24070    24115 1
   25089    24070    24116 1
   25090    24071    24072 1
   25091    24071    24117 1
   25092    24071    24118 1
   25093    24072    24119 1
   25094    24072    24120 1
   25095    24072    24121 1
   25096    24073    24074 1
   25097    24073    24122 1
   25098    24073    24123 1
   25099    24074    24075 1
   25100    24075    24076 1
   25101    24075    24124 1
   25102    24075    24125 1
   25103    24076    24077 1
   25104    24076    24083 1
   25105    24076    24126 1
   25106    24077    24078 1
   25107    24077    24127 1
   25108    24077    24128 1
   25109    24078    24079 1
   25110    24078    24129 1
   25111    24078    24130 1
   25112    24079    24080 1
   25113    24079    24131 1
   25114    24079    24132 1
   25115    24080    24081 1
   25116    24080    24133 1
   25117    24080    24134 1
   25118    24081    24082 1
   25119    24081    24135 1
   25120    24081    24136 1
   25121    24082    24137 1
   25122    24082    24138 1
   25123    24082    24139 1
   25124    24083    24084 1
   25125    24083    24140 1
   25126    24083    24141 1
   25127    24084    24085 1
   25128    24084    24142 1
   25129    24084    24143 1
   25130    24085    24086 1
   25131    24085    24144 1
   25132    24085    24145 1
   25133    24086    24087 1
   25134    24086    24146 1
   25135    24086    24147 1
   25136    24087    24088 1
   25137    24087    24148 1
   25138    24087    24149 1
   25139    24088    24089 1
   25140    24088    24150 1
   25141    24088    24151 1
   25142    24089    24090 1
   25143    24089    24152 1
   25144    24089    24153 1
   25145    24090    24154 1
   25146    24090    24155 1
   25147    24090    24156 1
   25148    24157    24158 1
   25149    24157    24164 1
   25150    24157    24196 1
   25151    24158    24159 1
   25152    24158    24162 1
   25153    24159    24160 1
   25154    24159    24163 1
   25155    24160    24161 1
   25156    24161    24162 1
   25157    24161    24172 1
   25158    24162    24168 1
   25159    24163    24164 1
   25160    24163    24167 1
   25161    24164    24165 1
   25162    24165    24166 1
   25163    24165    24169 1
   25164    24166    24167 1
   25165    24170    24171 1
   25166    24170    24178 1
   25167    24171    24172 1
   25168    24171    24179 1
   25169    24172    24173 1
   25170    24173    24174 1
   25171    24173    24177 1
   25172    24174    24175 1
   25173    24175    24176 1
   25174    24176    24177 1
   25175    24177    24178 1
   25176    24178    24288 1
   25177    24180    24181 1
   25178    24180    24213 1
   25179    24180    24214 1
   25180    24180    24215 1
   25181    24181    24182 1
   25182    24181    24216 1
   25183    24181    24217 1
   25184    24182    24183 1
   25185    24182    24218 1
   25186    24182    24219 1
   25187    24183    24184 1
   25188    24183    24220 1
   25189    24183    24221 1
   25190    24184    24185 1
   25191    24184    24222 1
   25192    24184    24223 1
   25193    24185    24186 1
   25194    24185    24224 1
   25195    24185    24225 1
   25196    24186    24187 1
   25197    24186    24226 1
   25198    24186    24227 1
   25199    24187    24188 1
   25200    24187    24228 1
   25201    24187    24229 1
   25202    24188    24189 1
   25203    24188    24195 1
   25204    24188    24230 1
   25205    24189    24190 1
   25206    24189    24231 1
   25207    24189    24232 1
   25208    24190    24191 1
   25209    24190    24233 1
   25210    24190    24234 1
   25211    24191    24192 1
   25212    24191    24235 1
   25213    24191    24236 1
   25214    24192    24193 1
   25215    24192    24237 1
   25216    24192    24238 1
   25217    24193    24194 1
   25218    24193    24239 1
   25219    24193    24240 1
   25220    24194    24241 1
   25221    24194    24242 1
   25222    24194    24243 1
   25223    24195    24196 1
   25224    24195    24244 1
   25225    24195    24245 1
   25226    24196    24197 1
   25227    24197    24198 1
   25228    24197    24246 1
   25229    24197    24247 1
   25230    24198    24199 1
   25231    24198    24205 1
   25232    24198    24248 1
   25233    24199    24200 1
   25234    24199    24249 1
   25235    24199    24250 1
   25236    24200    24201 1
   25237    24200    24251 1
   25238    24200    24252 1
   25239    24201    24202 1
   25240    24201    24253 1
   25241    24201    24254 1
   25242    24202    24203 1
   25243    24202    24255 1
   25244    24202    24256 1
   25245    24203    24204 1
   25246    24203    24257 1
   25247    24203    24258 1
   25248    24204    24259 1
   25249    24204    24260 1
   25250    24204    24261 1
   25251    24205    24206 1
   25252    24205    24262 1
   25253    24205    24263 1
   25254    24206    24207 1
   25255    24206    24264 1
   25256    24206    24265 1
   25257    24207    24208 1
   25258    24207    24266 1
   25259    24207    24267 1
   25260    24208    24209 1
   25261    24208    24268 1
   25262    24208    24269 1
   25263    24209    24210 1
   25264    24209    24270 1
   25265    24209    24271 1
   25266    24210    24211 1
   25267    24210    24272 1
   25268    24210    24273 1
   25269    24211    24212 1
   25270    24211    24274 1
   25271    24211    24275 1
   25272    24212    24276 1
   25273    24212    24277 1
   25274    24212    24278 1
   25275    24279    24280 1
   25276    24279    24286 1
   25277    24279    24318 1
   25278    24280    24281 1
   25279    24280    24284 1
   25280    24281    24282 1
   25281    24281    24285 1
   25282    24282    24283 1
   25283    24283    24284 1
   25284    24283    24294 1
   25285    24284    24290 1
   25286    24285    24286 1
   25287    24285    24289 1
   25288    24286    24287 1
   25289    24287    24288 1
   25290    24287    24291 1
   25291    24288    24289 1
   25292    24292    24293 1
   25293    24292    24300 1
   25294    24293    24294 1
   25295    24293    24301 1
   25296    24294    24295 1
   25297    24295    24296 1
   25298    24295    24299 1
   25299    24296    24297 1
   25300    24297    24298 1
   25301    24298    24299 1
   25302    24299    24300 1
   25303    24300    24410 1
   25304    24302    24303 1
   25305    24302    24335 1
   25306    24302    24336 1
   25307    24302    24337 1
   25308    24303    24304 1
   25309    24303    24338 1
   25310    24303    24339 1
   25311    24304    24305 1
   25312    24304    24340 1
   25313    24304    24341 1
   25314    24305    24306 1
   25315    24305    24342 1
   25316    24305    24343 1
   25317    24306    24307 1
   25318    24306    24344 1
   25319    24306    24345 1
   25320    24307    24308 1
   25321    24307    24346 1
   25322    24307    24347 1
   25323    24308    24309 1
   25324    24308    24348 1
   25325    24308    24349 1
   25326    24309    24310 1
   25327    24309    24350 1
   25328    24309    24351 1
   25329    24310    24311 1
   25330    24310    24317 1
   25331    24310    24352 1
   25332    24311    24312 1
   25333    24311    24353 1
   25334    24311    24354 1
   25335    24312    24313 1
   25336    24312    24355 1
   25337    24312    24356 1
   25338    24313    24314 1
   25339    24313    24357 1
   25340    24313    24358 1
   25341    24314    24315 1
   25342    24314    24359 1
   25343    24314    24360 1
   25344    24315    24316 1
   25345    24315    24361 1
   25346    24315    24362 1
   25347    24316    24363 1
   25348    24316    24364 1
   25349    24316    24365 1
   25350    24317    24318 1
   25351    24317    24366 1
   25352    24317    24367 1
   25353    24318    24319 1
   25354    24319    24320 1
   25355    24319    24368 1
   25356    24319    24369 1
   25357    24320    24321 1
   25358    24320    24327 1
   25359    24320    24370 1
   25360    24321    24322 1
   25361    24321    24371 1
   25362    24321    24372 1
   25363    24322    24323 1
   25364    24322    24373 1
   25365    24322    24374 1
   25366    24323    24324 1
   25367    24323    24375 1
   25368    24323    24376 1
   25369    24324    24325 1
   25370    24324    24377 1
   25371    24324    24378 1
   25372    24325    24326 1
   25373    24325    24379 1
   25374    24325    24380 1
   25375    24326    24381 1
   25376    24326    24382 1
   25377    24326    24383 1
   25378    24327    24328 1
   25379    24327    24384 1
   25380    24327    24385 1
   25381    24328    24329 1
   25382    24328    24386 1
   25383    24328    24387 1
   25384    24329    24330 1
   25385    24329    24388 1
   25386    24329    24389 1
   25387    24330    24331 1
   25388    24330    24390 1
   25389    24330    24391 1
   25390    24331    24332 1
   25391    24331    24392 1
   25392    24331    24393 1
   25393    24332    24333 1
   25394    24332    24394 1
   25395    24332    24395 1
   25396    24333    24334 1
   25397    24333    24396 1
   25398    24333    24397 1
   25399    24334    24398 1
   25400    24334    24399 1
   25401    24334    24400 1
   25402    24401    24402 1
   25403    24401    24408 1
   25404    24401    24440 1
   25405    24402    24403 1
   25406    24402    24406 1
   25407    24403    24404 1
   25408    24403    24407 1
   25409    24404    24405 1
   25410    24405    24406 1
   25411    24405    24416 1
   25412    24406    24412 1
   25413    24407    24408 1
   25414    24407    24411 1
   25415    24408    24409 1
   25416    24409    24410 1
   25417    24409    24413 1
   25418    24410    24411 1
   25419    24414    24415 1
   25420    24414    24422 1
   25421    24415    24416 1
   25422    24415    24423 1
   25423    24416    24417 1
   25424    24417    24418 1
   25425    24417    24421 1
   25426    24418    24419 1
   25427    24419    24420 1
   25428    24420    24421 1
   25429    24421    24422 1
   25430    24422    24532 1
   25431    24424    24425 1
   25432    24424    24457 1
   25433    24424    24458 1
   25434    24424    24459 1
   25435    24425    24426 1
   25436    24425    24460 1
   25437    24425    24461 1
   25438    24426    24427 1
   25439    24426    24462 1
   25440    24426    24463 1
   25441    24427    24428 1
   25442    24427    24464 1
   25443    24427    24465 1
   25444    24428    24429 1
   25445    24428    24466 1
   25446    24428    24467 1
   25447    24429    24430 1
   25448    24429    24468 1
   25449    24429    24469 1
   25450    24430    24431 1
   25451    24430    24470 1
   25452    24430    24471 1
   25453    24431    24432 1
   25454    24431    24472 1
   25455    24431    24473 1
   25456    24432    24433 1
   25457    24432    24439 1
   25458    24432    24474 1
   25459    24433    24434 1
   25460    24433    24475 1
   25461    24433    24476 1
   25462    24434    24435 1
   25463    24434    24477 1
   25464    24434    24478 1
   25465    24435    24436 1
   25466    24435    24479 1
   25467    24435    24480 1
   25468    24436    24437 1
   25469    24436    24481 1
   25470    24436    24482 1
   25471    24437    24438 1
   25472    24437    24483 1
   25473    24437    24484 1
   25474    24438    24485 1
   25475    24438    24486 1
   25476    24438    24487 1
   25477    24439    24440 1
   25478    24439    24488 1
   25479    24439    24489 1
   25480    24440    24441 1
   25481    24441    24442 1
   25482    24441    24490 1
   25483    24441    24491 1
   25484    24442    24443 1
   25485    24442    24449 1
   25486    24442    24492 1
   25487    24443    24444 1
   25488    24443    24493 1
   25489    24443    24494 1
   25490    24444    24445 1
   25491    24444    24495 1
   25492    24444    24496 1
   25493    24445    24446 1
   25494    24445    24497 1
   25495    24445    24498 1
   25496    24446    24447 1
   25497    24446    24499 1
   25498    24446    24500 1
   25499    24447    24448 1
   25500    24447    24501 1
   25501    24447    24502 1
   25502    24448    24503 1
   25503    24448    24504 1
   25504    24448    24505 1
   25505    24449    24450 1
   25506    24449    24506 1
   25507    24449    24507 1
   25508    24450    24451 1
   25509    24450    24508 1
   25510    24450    24509 1
   25511    24451    24452 1
   25512    24451    24510 1
   25513    24451    24511 1
   25514    24452    24453 1
   25515    24452    24512 1
   25516    24452    24513 1
   25517    24453    24454 1
   25518    24453    24514 1
   25519    24453    24515 1
   25520    24454    24455 1
   25521    24454    24516 1
   25522    24454    24517 1
   25523    24455    24456 1
   25524    24455    24518 1
   25525    24455    24519 1
   25526    24456    24520 1
   25527    24456    24521 1
   25528    24456    24522 1
   25529    24523    24524 1
   25530    24523    24530 1
   25531    24523    24562 1
   25532    24524    24525 1
   25533    24524    24528 1
   25534    24525    24526 1
   25535    24525    24529 1
   25536    24526    24527 1
   25537    24527    24528 1
   25538    24527    24538 1
   25539    24528    24534 1
   25540    24529    24530 1
   25541    24529    24533 1
   25542    24530    24531 1
   25543    24531    24532 1
   25544    24531    24535 1
   25545    24532    24533 1
   25546    24536    24537 1
   25547    24536    24544 1
   25548    24537    24538 1
   25549    24537    24545 1
   25550    24538    24539 1
   25551    24539    24540 1
   25552    24539    24543 1
   25553    24540    24541 1
   25554    24541    24542 1
   25555    24542    24543 1
   25556    24543    24544 1
   25557    24544    24654 1
   25558    24546    24547 1
   25559    24546    24579 1
   25560    24546    24580 1
   25561    24546    24581 1
   25562    24547    24548 1
   25563    24547    24582 1
   25564    24547    24583 1
   25565    24548    24549 1
   25566    24548    24584 1
   25567    24548    24585 1
   25568    24549    24550 1
   25569    24549    24586 1
   25570    24549    24587 1
   25571    24550    24551 1
   25572    24550    24588 1
   25573    24550    24589 1
   25574    24551    24552 1
   25575    24551    24590 1
   25576    24551    24591 1
   25577    24552    24553 1
   25578    24552    24592 1
   25579    24552    24593 1
   25580    24553    24554 1
   25581    24553    24594 1
   25582    24553    24595 1
   25583    24554    24555 1
   25584    24554    24561 1
   25585    24554    24596 1
   25586    24555    24556 1
   25587    24555    24597 1
   25588    24555    24598 1
   25589    24556    24557 1
   25590    24556    24599 1
   25591    24556    24600 1
   25592    24557    24558 1
   25593    24557    24601 1
   25594    24557    24602 1
   25595    24558    24559 1
   25596    24558    24603 1
   25597    24558    24604 1
   25598    24559    24560 1
   25599    24559    24605 1
   25600    24559    24606 1
   25601    24560    24607 1
   25602    24560    24608 1
   25603    24560    24609 1
   25604    24561    24562 1
   25605    24561    24610 1
   25606    24561    24611 1
   25607    24562    24563 1
   25608    24563    24564 1
   25609    24563    24612 1
   25610    24563    24613 1
   25611    24564    24565 1
   25612    24564    24571 1
   25613    24564    24614 1
   25614    24565    24566 1
   25615    24565    24615 1
   25616    24565    24616 1
   25617    24566    24567 1
   25618    24566    24617 1
   25619    24566    24618 1
   25620    24567    24568 1
   25621    24567    24619 1
   25622    24567    24620 1
   25623    24568    24569 1
   25624    24568    24621 1
   25625    24568    24622 1
   25626    24569    24570 1
   25627    24569    24623 1
   25628    24569    24624 1
   25629    24570    24625 1
   25630    24570    24626 1
   25631    24570    24627 1
   25632    24571    24572 1
   25633    24571    24628 1
   25634    24571    24629 1
   25635    24572    24573 1
   25636    24572    24630 1
   25637    24572    24631 1
   25638    24573    24574 1
   25639    24573    24632 1
   25640    24573    24633 1
   25641    24574    24575 1
   25642    24574    24634 1
   25643    24574    24635 1
   25644    24575    24576 1
   25645    24575    24636 1
   25646    24575    24637 1
   25647    24576    24577 1
   25648    24576    24638 1
   25649    24576    24639 1
   25650    24577    24578 1
   25651    24577    24640 1
   25652    24577    24641 1
   25653    24578    24642 1
   25654    24578    24643 1
   25655    24578    24644 1
   25656    24645    24646 1
   25657    24645    24652 1
   25658    24645    24684 1
   25659    24646    24647 1
   25660    24646    24650 1
   25661    24647    24648 1
   25662    24647    24651 1
   25663    24648    24649 1
   25664    24649    24650 1
   25665    24649    24660 1
   25666    24650    24656 1
   25667    24651    24652 1
   25668    24651    24655 1
   25669    24652    24653 1
   25670    24653    24654 1
   25671    24653    24657 1
   25672    24654    24655 1
   25673    24658    24659 1
   25674    24658    24666 1
   25675    24659    24660 1
   25676    24659    24667 1
   25677    24660    24661 1
   25678    24661    24662 1
   25679    24661    24665 1
   25680    24662    24663 1
   25681    24663    24664 1
   25682    24664    24665 1
   25683    24665    24666 1
   25684    24666    24776 1
   25685    24668    24669 1
   25686    24668    24701 1
   25687    24668    24702 1
   25688    24668    24703 1
   25689    24669    24670 1
   25690    24669    24704 1
   25691    24669    24705 1
   25692    24670    24671 1
   25693    24670    24706 1
   25694    24670    24707 1
   25695    24671    24672 1
   25696    24671    24708 1
   25697    24671    24709 1
   25698    24672    24673 1
   25699    24672    24710 1
   25700    24672    24711 1
   25701    24673    24674 1
   25702    24673    24712 1
   25703    24673    24713 1
   25704    24674    24675 1
   25705    24674    24714 1
   25706    24674    24715 1
   25707    24675    24676 1
   25708    24675    24716 1
   25709    24675    24717 1
   25710    24676    24677 1
   25711    24676    24683 1
   25712    24676    24718 1
   25713    24677    24678 1
   25714    24677    24719 1
   25715    24677    24720 1
   25716    24678    24679 1
   25717    24678    24721 1
   25718    24678    24722 1
   25719    24679    24680 1
   25720    24679    24723 1
   25721    24679    24724 1
   25722    24680    24681 1
   25723    24680    24725 1
   25724    24680    24726 1
   25725    24681    24682 1
   25726    24681    24727 1
   25727    24681    24728 1
   25728    24682    24729 1
   25729    24682    24730 1
   25730    24682    24731 1
   25731    24683    24684 1
   25732    24683    24732 1
   25733    24683    24733 1
   25734    24684    24685 1
   25735    24685    24686 1
   25736    24685    24734 1
   25737    24685    24735 1
   25738    24686    24687 1
   25739    24686    24693 1
   25740    24686    24736 1
   25741    24687    24688 1
   25742    24687    24737 1
   25743    24687    24738 1
   25744    24688    24689 1
   25745    24688    24739 1
   25746    24688    24740 1
   25747    24689    24690 1
   25748    24689    24741 1
   25749    24689    24742 1
   25750    24690    24691 1
   25751    24690    24743 1
   25752    24690    24744 1
   25753    24691    24692 1
   25754    24691    24745 1
   25755    24691    24746 1
   25756    24692    24747 1
   25757    24692    24748 1
   25758    24692    24749 1
   25759    24693    24694 1
   25760    24693    24750 1
   25761    24693    24751 1
   25762    24694    24695 1
   25763    24694    24752 1
   25764    24694    24753 1
   25765    24695    24696 1
   25766    24695    24754 1
   25767    24695    24755 1
   25768    24696    24697 1
   25769    24696    24756 1
   25770    24696    24757 1
   25771    24697    24698 1
   25772    24697    24758 1
   25773    24697    24759 1
   25774    24698    24699 1
   25775    24698    24760 1
   25776    24698    24761 1
   25777    24699    24700 1
   25778    24699    24762 1
   25779    24699    24763 1
   25780    24700    24764 1
   25781    24700    24765 1
   25782    24700    24766 1
   25783    24767    24768 1
   25784    24767    24774 1
   25785    24767    24806 1
   25786    24768    24769 1
   25787    24768    24772 1
   25788    24769    24770 1
   25789    24769    24773 1
   25790    24770    24771 1
   25791    24771    24772 1
   25792    24771    24782 1
   25793    24772    24778 1
   25794    24773    24774 1
   25795    24773    24777 1
   25796    24774    24775 1
   25797    24775    24776 1
   25798    24775    24779 1
   25799    24776    24777 1
   25800    24780    24781 1
   25801    24780    24788 1
   25802    24781    24782 1
   25803    24781    24789 1
   25804    24782    24783 1
   25805    24783    24784 1
   25806    24783    24787 1
   25807    24784    24785 1
   25808    24785    24786 1
   25809    24786    24787 1
   25810    24787    24788 1
   25811    24788    24898 1
   25812    24790    24791 1
   25813    24790    24823 1
   25814    24790    24824 1
   25815    24790    24825 1
   25816    24791    24792 1
   25817    24791    24826 1
   25818    24791    24827 1
   25819    24792    24793 1
   25820    24792    24828 1
   25821    24792    24829 1
   25822    24793    24794 1
   25823    24793    24830 1
   25824    24793    24831 1
   25825    24794    24795 1
   25826    24794    24832 1
   25827    24794    24833 1
   25828    24795    24796 1
   25829    24795    24834 1
   25830    24795    24835 1
   25831    24796    24797 1
   25832    24796    24836 1
   25833    24796    24837 1
   25834    24797    24798 1
   25835    24797    24838 1
   25836    24797    24839 1
   25837    24798    24799 1
   25838    24798    24805 1
   25839    24798    24840 1
   25840    24799    24800 1
   25841    24799    24841 1
   25842    24799    24842 1
   25843    24800    24801 1
   25844    24800    24843 1
   25845    24800    24844 1
   25846    24801    24802 1
   25847    24801    24845 1
   25848    24801    24846 1
   25849    24802    24803 1
   25850    24802    24847 1
   25851    24802    24848 1
   25852    24803    24804 1
   25853    24803    24849 1
   25854    24803    24850 1
   25855    24804    24851 1
   25856    24804    24852 1
   25857    24804    24853 1
   25858    24805    24806 1
   25859    24805    24854 1
   25860    24805    24855 1
   25861    24806    24807 1
   25862    24807    24808 1
   25863    24807    24856 1
   25864    24807    24857 1
   25865    24808    24809 1
   25866    24808    24815 1
   25867    24808    24858 1
   25868    24809    24810 1
   25869    24809    24859 1
   25870    24809    24860 1
   25871    24810    24811 1
   25872    24810    24861 1
   25873    24810    24862 1
   25874    24811    24812 1
   25875    24811    24863 1
   25876    24811    24864 1
   25877    24812    24813 1
   25878    24812    24865 1
   25879    24812    24866 1
   25880    24813    24814 1
   25881    24813    24867 1
   25882    24813    24868 1
   25883    24814    24869 1
   25884    24814    24870 1
   25885    24814    24871 1
   25886    24815    24816 1
   25887    24815    24872 1
   25888    24815    24873 1
   25889    24816    24817 1
   25890    24816    24874 1
   25891    24816    24875 1
   25892    24817    24818 1
   25893    24817    24876 1
   25894    24817    24877 1
   25895    24818    24819 1
   25896    24818    24878 1
   25897    24818    24879 1
   25898    24819    24820 1
   25899    24819    24880 1
   25900    24819    24881 1
   25901    24820    24821 1
   25902    24820    24882 1
   25903    24820    24883 1
   25904    24821    24822 1
   25905    24821    24884 1
   25906    24821    24885 1
   25907    24822    24886 1
   25908    24822    24887 1
   25909    24822    24888 1
   25910    24889    24890 1
   25911    24889    24896 1
   25912    24889    24928 1
   25913    24890    24891 1
   25914    24890    24894 1
   25915    24891    24892 1
   25916    24891    24895 1
   25917    24892    24893 1
   25918    24893    24894 1
   25919    24893    24904 1
   25920    24894    24900 1
   25921    24895    24896 1
   25922    24895    24899 1
   25923    24896    24897 1
   25924    24897    24898 1
   25925    24897    24901 1
   25926    24898    24899 1
   25927    24902    24903 1
   25928    24902    24910 1
   25929    24903    24904 1
   25930    24903    24911 1
   25931    24904    24905 1
   25932    24905    24906 1
   25933    24905    24909 1
   25934    24906    24907 1
   25935    24907    24908 1
   25936    24908    24909 1
   25937    24909    24910 1
   25938    24910    25020 1
   25939    24912    24913 1
   25940    24912    24945 1
   25941    24912    24946 1
   25942    24912    24947 1
   25943    24913    24914 1
   25944    24913    24948 1
   25945    24913    24949 1
   25946    24914    24915 1
   25947    24914    24950 1
   25948    24914    24951 1
   25949    24915    24916 1
   25950    24915    24952 1
   25951    24915    24953 1
   25952    24916    24917 1
   25953    24916    24954 1
   25954    24916    24955 1
   25955    24917    24918 1
   25956    24917    24956 1
   25957    24917    24957 1
   25958    24918    24919 1
   25959    24918    24958 1
   25960    24918    24959 1
   25961    24919    24920 1
   25962    24919    24960 1
   25963    24919    24961 1
   25964    24920    24921 1
   25965    24920    24927 1
   25966    24920    24962 1
   25967    24921    24922 1
   25968    24921    24963 1
   25969    24921    24964 1
   25970    24922    24923 1
   25971    24922    24965 1
   25972    24922    24966 1
   25973    24923    24924 1
   25974    24923    24967 1
   25975    24923    24968 1
   25976    24924    24925 1
   25977    24924    24969 1
   25978    24924    24970 1
   25979    24925    24926 1
   25980    24925    24971 1
   25981    24925    24972 1
   25982    24926    24973 1
   25983    24926    24974 1
   25984    24926    24975 1
   25985    24927    24928 1
   25986    24927    24976 1
   25987    24927    24977 1
   25988    24928    24929 1
   25989    24929    24930 1
   25990    24929    24978 1
   25991    24929    24979 1
   25992    24930    24931 1
   25993    24930    24937 1
   25994    24930    24980 1
   25995    24931    24932 1
   25996    24931    24981 1
   25997    24931    24982 1
   25998    24932    24933 1
   25999    24932    24983 1
   26000    24932    24984 1
   26001    24933    24934 1
   26002    24933    24985 1
   26003    24933    24986 1
   26004    24934    24935 1
   26005    24934    24987 1
   26006    24934    24988 1
   26007    24935    24936 1
   26008    24935    24989 1
   26009    24935    24990 1
   26010    24936    24991 1
   26011    24936    24992 1
   26012    24936    24993 1
   26013    24937    24938 1
   26014    24937    24994 1
   26015    24937    24995 1
   26016    24938    24939 1
   26017    24938    24996 1
   26018    24938    24997 1
   26019    24939    24940 1
   26020    24939    24998 1
   26021    24939    24999 1
   26022    24940    24941 1
   26023    24940    25000 1
   26024    24940    25001 1
   26025    24941    24942 1
   26026    24941    25002 1
   26027    24941    25003 1
   26028    24942    24943 1
   26029    24942    25004 1
   26030    24942    25005 1
   26031    24943    24944 1
   26032    24943    25006 1
   26033    24943    25007 1
   26034    24944    25008 1
   26035    24944    25009 1
   26036    24944    25010 1
   26037    25011    25012 1
   26038    25011    25018 1
   26039    25011    25050 1
   26040    25012    25013 1
   26041    25012    25016 1
   26042    25013    25014 1
   26043    25013    25017 1
   26044    25014    25015 1
   26045    25015    25016 1
   26046    25015    25026 1
   26047    25016    25022 1
   26048    25017    25018 1
   26049    25017    25021 1
   26050    25018    25019 1
   26051    25019    25020 1
   26052    25019    25023 1
   26053    25020    25021 1
   26054    25024    25025 1
   26055    25024    25032 1
   26056    25025    25026 1
   26057    25025    25033 1
   26058    25026    25027 1
   26059    25027    25028 1
   26060    25027    25031 1
   26061    25028    25029 1
   26062    25029    25030 1
   26063    25030    25031 1
   26064    25031    25032 1
   26065    25032    25142 1
   26066    25034    25035 1
   26067    25034    25067 1
   26068    25034    25068 1
   26069    25034    25069 1
   26070    25035    25036 1
   26071    25035    25070 1
   26072    25035    25071 1
   26073    25036    25037 1
   26074    25036    25072 1
   26075    25036    25073 1
   26076    25037    25038 1
   26077    25037    25074 1
   26078    25037    25075 1
   26079    25038    25039 1
   26080    25038    25076 1
   26081    25038    25077 1
   26082    25039    25040 1
   26083    25039    25078 1
   26084    25039    25079 1
   26085    25040    25041 1
   26086    25040    25080 1
   26087    25040    25081 1
   26088    25041    25042 1
   26089    25041    25082 1
   26090    25041    25083 1
   26091    25042    25043 1
   26092    25042    25049 1
   26093    25042    25084 1
   26094    25043    25044 1
   26095    25043    25085 1
   26096    25043    25086 1
   26097    25044    25045 1
   26098    25044    25087 1
   26099    25044    25088 1
   26100    25045    25046 1
   26101    25045    25089 1
   26102    25045    25090 1
   26103    25046    25047 1
   26104    25046    25091 1
   26105    25046    25092 1
   26106    25047    25048 1
   26107    25047    25093 1
   26108    25047    25094 1
   26109    25048    25095 1
   26110    25048    25096 1
   26111    25048    25097 1
   26112    25049    25050 1
   26113    25049    25098 1
   26114    25049    25099 1
   26115    25050    25051 1
   26116    25051    25052 1
   26117    25051    25100 1
   26118    25051    25101 1
   26119    25052    25053 1
   26120    25052    25059 1
   26121    25052    25102 1
   26122    25053    25054 1
   26123    25053    25103 1
   26124    25053    25104 1
   26125    25054    25055 1
   26126    25054    25105 1
   26127    25054    25106 1
   26128    25055    25056 1
   26129    25055    25107 1
   26130    25055    25108 1
   26131    25056    25057 1
   26132    25056    25109 1
   26133    25056    25110 1
   26134    25057    25058 1
   26135    25057    25111 1
   26136    25057    25112 1
   26137    25058    25113 1
   26138    25058    25114 1
   26139    25058    25115 1
   26140    25059    25060 1
   26141    25059    25116 1
   26142    25059    25117 1
   26143    25060    25061 1
   26144    25060    25118 1
   26145    25060    25119 1
   26146    25061    25062 1
   26147    25061    25120 1
   26148    25061    25121 1
   26149    25062    25063 1
   26150    25062    25122 1
   26151    25062    25123 1
   26152    25063    25064 1
   26153    25063    25124 1
   26154    25063    25125 1
   26155    25064    25065 1
   26156    25064    25126 1
   26157    25064    25127 1
   26158    25065    25066 1
   26159    25065    25128 1
   26160    25065    25129 1
   26161    25066    25130 1
   26162    25066    25131 1
   26163    25066    25132 1
   26164    25133    25134 1
   26165    25133    25140 1
   26166    25133    25172 1
   26167    25134    25135 1
   26168    25134    25138 1
   26169    25135    25136 1
   26170    25135    25139 1
   26171    25136    25137 1
   26172    25137    25138 1
   26173    25137    25148 1
   26174    25138    25144 1
   26175    25139    25140 1
   26176    25139    25143 1
   26177    25140    25141 1
   26178    25141    25142 1
   26179    25141    25145 1
   26180    25142    25143 1
   26181    25146    25147 1
   26182    25146    25154 1
   26183    25147    25148 1
   26184    25147    25155 1
   26185    25148    25149 1
   26186    25149    25150 1
   26187    25149    25153 1
   26188    25150    25151 1
   26189    25151    25152 1
   26190    25152    25153 1
   26191    25153    25154 1
   26192    25154    25264 1
   26193    25156    25157 1
   26194    25156    25189 1
   26195    25156    25190 1
   26196    25156    25191 1
   26197    25157    25158 1
   26198    25157    25192 1
   26199    25157    25193 1
   26200    25158    25159 1
   26201    25158    25194 1
   26202    25158    25195 1
   26203    25159    25160 1
   26204    25159    25196 1
   26205    25159    25197 1
   26206    25160    25161 1
   26207    25160    25198 1
   26208    25160    25199 1
   26209    25161    25162 1
   26210    25161    25200 1
   26211    25161    25201 1
   26212    25162    25163 1
   26213    25162    25202 1
   26214    25162    25203 1
   26215    25163    25164 1
   26216    25163    25204 1
   26217    25163    25205 1
   26218    25164    25165 1
   26219    25164    25171 1
   26220    25164    25206 1
   26221    25165    25166 1
   26222    25165    25207 1
   26223    25165    25208 1
   26224    25166    25167 1
   26225    25166    25209 1
   26226    25166    25210 1
   26227    25167    25168 1
   26228    25167    25211 1
   26229    25167    25212 1
   26230    25168    25169 1
   26231    25168    25213 1
   26232    25168    25214 1
   26233    25169    25170 1
   26234    25169    25215 1
   26235    25169    25216 1
   26236    25170    25217 1
   26237    25170    25218 1
   26238    25170    25219 1
   26239    25171    25172 1
   26240    25171    25220 1
   26241    25171    25221 1
   26242    25172    25173 1
   26243    25173    25174 1
   26244    25173    25222 1
   26245    25173    25223 1
   26246    25174    25175 1
   26247    25174    25181 1
   26248    25174    25224 1
   26249    25175    25176 1
   26250    25175    25225 1
   26251    25175    25226 1
   26252    25176    25177 1
   26253    25176    25227 1
   26254    25176    25228 1
   26255    25177    25178 1
   26256    25177    25229 1
   26257    25177    25230 1
   26258    25178    25179 1
   26259    25178    25231 1
   26260    25178    25232 1
   26261    25179    25180 1
   26262    25179    25233 1
   26263    25179    25234 1
   26264    25180    25235 1
   26265    25180    25236 1
   26266    25180    25237 1
   26267    25181    25182 1
   26268    25181    25238 1
   26269    25181    25239 1
   26270    25182    25183 1
   26271    25182    25240 1
   26272    25182    25241 1
   26273    25183    25184 1
   26274    25183    25242 1
   26275    25183    25243 1
   26276    25184    25185 1
   26277    25184    25244 1
   26278    25184    25245 1
   26279    25185    25186 1
   26280    25185    25246 1
   26281    25185    25247 1
   26282    25186    25187 1
   26283    25186    25248 1
   26284    25186    25249 1
   26285    25187    25188 1
   26286    25187    25250 1
   26287    25187    25251 1
   26288    25188    25252 1
   26289    25188    25253 1
   26290    25188    25254 1
   26291    25255    25256 1
   26292    25255    25262 1
   26293    25255    25294 1
   26294    25256    25257 1
   26295    25256    25260 1
   26296    25257    25258 1
   26297    25257    25261 1
   26298    25258    25259 1
   26299    25259    25260 1
   26300    25259    25270 1
   26301    25260    25266 1
   26302    25261    25262 1
   26303    25261    25265 1
   26304    25262    25263 1
   26305    25263    25264 1
   26306    25263    25267 1
   26307    25264    25265 1
   26308    25268    25269 1
   26309    25268    25276 1
   26310    25269    25270 1
   26311    25269    25277 1
   26312    25270    25271 1
   26313    25271    25272 1
   26314    25271    25275 1
   26315    25272    25273 1
   26316    25273    25274 1
   26317    25274    25275 1
   26318    25275    25276 1
   26319    25276    25386 1
   26320    25278    25279 1
   26321    25278    25311 1
   26322    25278    25312 1
   26323    25278    25313 1
   26324    25279    25280 1
   26325    25279    25314 1
   26326    25279    25315 1
   26327    25280    25281 1
   26328    25280    25316 1
   26329    25280    25317 1
   26330    25281    25282 1
   26331    25281    25318 1
   26332    25281    25319 1
   26333    25282    25283 1
   26334    25282    25320 1
   26335    25282    25321 1
   26336    25283    25284 1
   26337    25283    25322 1
   26338    25283    25323 1
   26339    25284    25285 1
   26340    25284    25324 1
   26341    25284    25325 1
   26342    25285    25286 1
   26343    25285    25326 1
   26344    25285    25327 1
   26345    25286    25287 1
   26346    25286    25293 1
   26347    25286    25328 1
   26348    25287    25288 1
   26349    25287    25329 1
   26350    25287    25330 1
   26351    25288    25289 1
   26352    25288    25331 1
   26353    25288    25332 1
   26354    25289    25290 1
   26355    25289    25333 1
   26356    25289    25334 1
   26357    25290    25291 1
   26358    25290    25335 1
   26359    25290    25336 1
   26360    25291    25292 1
   26361    25291    25337 1
   26362    25291    25338 1
   26363    25292    25339 1
   26364    25292    25340 1
   26365    25292    25341 1
   26366    25293    25294 1
   26367    25293    25342 1
   26368    25293    25343 1
   26369    25294    25295 1
   26370    25295    25296 1
   26371    25295    25344 1
   26372    25295    25345 1
   26373    25296    25297 1
   26374    25296    25303 1
   26375    25296    25346 1
   26376    25297    25298 1
   26377    25297    25347 1
   26378    25297    25348 1
   26379    25298    25299 1
   26380    25298    25349 1
   26381    25298    25350 1
   26382    25299    25300 1
   26383    25299    25351 1
   26384    25299    25352 1
   26385    25300    25301 1
   26386    25300    25353 1
   26387    25300    25354 1
   26388    25301    25302 1
   26389    25301    25355 1
   26390    25301    25356 1
   26391    25302    25357 1
   26392    25302    25358 1
   26393    25302    25359 1
   26394    25303    25304 1
   26395    25303    25360 1
   26396    25303    25361 1
   26397    25304    25305 1
   26398    25304    25362 1
   26399    25304    25363 1
   26400    25305    25306 1
   26401    25305    25364 1
   26402    25305    25365 1
   26403    25306    25307 1
   26404    25306    25366 1
   26405    25306    25367 1
   26406    25307    25308 1
   26407    25307    25368 1
   26408    25307    25369 1
   26409    25308    25309 1
   26410    25308    25370 1
   26411    25308    25371 1
   26412    25309    25310 1
   26413    25309    25372 1
   26414    25309    25373 1
   26415    25310    25374 1
   26416    25310    25375 1
   26417    25310    25376 1
   26418    25377    25378 1
   26419    25377    25384 1
   26420    25377    25416 1
   26421    25378    25379 1
   26422    25378    25382 1
   26423    25379    25380 1
   26424    25379    25383 1
   26425    25380    25381 1
   26426    25381    25382 1
   26427    25381    25392 1
   26428    25382    25388 1
   26429    25383    25384 1
   26430    25383    25387 1
   26431    25384    25385 1
   26432    25385    25386 1
   26433    25385    25389 1
   26434    25386    25387 1
   26435    25390    25391 1
   26436    25390    25398 1
   26437    25391    25392 1
   26438    25391    25399 1
   26439    25392    25393 1
   26440    25393    25394 1
   26441    25393    25397 1
   26442    25394    25395 1
   26443    25395    25396 1
   26444    25396    25397 1
   26445    25397    25398 1
   26446    25398    25508 1
   26447    25400    25401 1
   26448    25400    25433 1
   26449    25400    25434 1
   26450    25400    25435 1
   26451    25401    25402 1
   26452    25401    25436 1
   26453    25401    25437 1
   26454    25402    25403 1
   26455    25402    25438 1
   26456    25402    25439 1
   26457    25403    25404 1
   26458    25403    25440 1
   26459    25403    25441 1
   26460    25404    25405 1
   26461    25404    25442 1
   26462    25404    25443 1
   26463    25405    25406 1
   26464    25405    25444 1
   26465    25405    25445 1
   26466    25406    25407 1
   26467    25406    25446 1
   26468    25406    25447 1
   26469    25407    25408 1
   26470    25407    25448 1
   26471    25407    25449 1
   26472    25408    25409 1
   26473    25408    25415 1
   26474    25408    25450 1
   26475    25409    25410 1
   26476    25409    25451 1
   26477    25409    25452 1
   26478    25410    25411 1
   26479    25410    25453 1
   26480    25410    25454 1
   26481    25411    25412 1
   26482    25411    25455 1
   26483    25411    25456 1
   26484    25412    25413 1
   26485    25412    25457 1
   26486    25412    25458 1
   26487    25413    25414 1
   26488    25413    25459 1
   26489    25413    25460 1
   26490    25414    25461 1
   26491    25414    25462 1
   26492    25414    25463 1
   26493    25415    25416 1
   26494    25415    25464 1
   26495    25415    25465 1
   26496    25416    25417 1
   26497    25417    25418 1
   26498    25417    25466 1
   26499    25417    25467 1
   26500    25418    25419 1
   26501    25418    25425 1
   26502    25418    25468 1
   26503    25419    25420 1
   26504    25419    25469 1
   26505    25419    25470 1
   26506    25420    25421 1
   26507    25420    25471 1
   26508    25420    25472 1
   26509    25421    25422 1
   26510    25421    25473 1
   26511    25421    25474 1
   26512    25422    25423 1
   26513    25422    25475 1
   26514    25422    25476 1
   26515    25423    25424 1
   26516    25423    25477 1
   26517    25423    25478 1
   26518    25424    25479 1
   26519    25424    25480 1
   26520    25424    25481 1
   26521    25425    25426 1
   26522    25425    25482 1
   26523    25425    25483 1
   26524    25426    25427 1
   26525    25426    25484 1
   26526    25426    25485 1
   26527    25427    25428 1
   26528    25427    25486 1
   26529    25427    25487 1
   26530    25428    25429 1
   26531    25428    25488 1
   26532    25428    25489 1
   26533    25429    25430 1
   26534    25429    25490 1
   26535    25429    25491 1
   26536    25430    25431 1
   26537    25430    25492 1
   26538    25430    25493 1
   26539    25431    25432 1
   26540    25431    25494 1
   26541    25431    25495 1
   26542    25432    25496 1
   26543    25432    25497 1
   26544    25432    25498 1
   26545    25499    25500 1
   26546    25499    25506 1
   26547    25499    25538 1
   26548    25500    25501 1
   26549    25500    25504 1
   26550    25501    25502 1
   26551    25501    25505 1
   26552    25502    25503 1
   26553    25503    25504 1
   26554    25503    25514 1
   26555    25504    25510 1
   26556    25505    25506 1
   26557    25505    25509 1
   26558    25506    25507 1
   26559    25507    25508 1
   26560    25507    25511 1
   26561    25508    25509 1
   26562    25512    25513 1
   26563    25512    25520 1
   26564    25513    25514 1
   26565    25513    25521 1
   26566    25514    25515 1
   26567    25515    25516 1
   26568    25515    25519 1
   26569    25516    25517 1
   26570    25517    25518 1
   26571    25518    25519 1
   26572    25519    25520 1
   26573    25520    25630 1
   26574    25522    25523 1
   26575    25522    25555 1
   26576    25522    25556 1
   26577    25522    25557 1
   26578    25523    25524 1
   26579    25523    25558 1
   26580    25523    25559 1
   26581    25524    25525 1
   26582    25524    25560 1
   26583    25524    25561 1
   26584    25525    25526 1
   26585    25525    25562 1
   26586    25525    25563 1
   26587    25526    25527 1
   26588    25526    25564 1
   26589    25526    25565 1
   26590    25527    25528 1
   26591    25527    25566 1
   26592    25527    25567 1
   26593    25528    25529 1
   26594    25528    25568 1
   26595    25528    25569 1
   26596    25529    25530 1
   26597    25529    25570 1
   26598    25529    25571 1
   26599    25530    25531 1
   26600    25530    25537 1
   26601    25530    25572 1
   26602    25531    25532 1
   26603    25531    25573 1
   26604    25531    25574 1
   26605    25532    25533 1
   26606    25532    25575 1
   26607    25532    25576 1
   26608    25533    25534 1
   26609    25533    25577 1
   26610    25533    25578 1
   26611    25534    25535 1
   26612    25534    25579 1
   26613    25534    25580 1
   26614    25535    25536 1
   26615    25535    25581 1
   26616    25535    25582 1
   26617    25536    25583 1
   26618    25536    25584 1
   26619    25536    25585 1
   26620    25537    25538 1
   26621    25537    25586 1
   26622    25537    25587 1
   26623    25538    25539 1
   26624    25539    25540 1
   26625    25539    25588 1
   26626    25539    25589 1
   26627    25540    25541 1
   26628    25540    25547 1
   26629    25540    25590 1
   26630    25541    25542 1
   26631    25541    25591 1
   26632    25541    25592 1
   26633    25542    25543 1
   26634    25542    25593 1
   26635    25542    25594 1
   26636    25543    25544 1
   26637    25543    25595 1
   26638    25543    25596 1
   26639    25544    25545 1
   26640    25544    25597 1
   26641    25544    25598 1
   26642    25545    25546 1
   26643    25545    25599 1
   26644    25545    25600 1
   26645    25546    25601 1
   26646    25546    25602 1
   26647    25546    25603 1
   26648    25547    25548 1
   26649    25547    25604 1
   26650    25547    25605 1
   26651    25548    25549 1
   26652    25548    25606 1
   26653    25548    25607 1
   26654    25549    25550 1
   26655    25549    25608 1
   26656    25549    25609 1
   26657    25550    25551 1
   26658    25550    25610 1
   26659    25550    25611 1
   26660    25551    25552 1
   26661    25551    25612 1
   26662    25551    25613 1
   26663    25552    25553 1
   26664    25552    25614 1
   26665    25552    25615 1
   26666    25553    25554 1
   26667    25553    25616 1
   26668    25553    25617 1
   26669    25554    25618 1
   26670    25554    25619 1
   26671    25554    25620 1
   26672    25621    25622 1
   26673    25621    25628 1
   26674    25621    25660 1
   26675    25622    25623 1
   26676    25622    25626 1
   26677    25623    25624 1
   26678    25623    25627 1
   26679    25624    25625 1
   26680    25625    25626 1
   26681    25625    25636 1
   26682    25626    25632 1
   26683    25627    25628 1
   26684    25627    25631 1
   26685    25628    25629 1
   26686    25629    25630 1
   26687    25629    25633 1
   26688    25630    25631 1
   26689    25634    25635 1
   26690    25634    25642 1
   26691    25635    25636 1
   26692    25635    25643 1
   26693    25636    25637 1
   26694    25637    25638 1
   26695    25637    25641 1
   26696    25638    25639 1
   26697    25639    25640 1
   26698    25640    25641 1
   26699    25641    25642 1
   26700    25642    25752 1
   26701    25644    25645 1
   26702    25644    25677 1
   26703    25644    25678 1
   26704    25644    25679 1
   26705    25645    25646 1
   26706    25645    25680 1
   26707    25645    25681 1
   26708    25646    25647 1
   26709    25646    25682 1
   26710    25646    25683 1
   26711    25647    25648 1
   26712    25647    25684 1
   26713    25647    25685 1
   26714    25648    25649 1
   26715    25648    25686 1
   26716    25648    25687 1
   26717    25649    25650 1
   26718    25649    25688 1
   26719    25649    25689 1
   26720    25650    25651 1
   26721    25650    25690 1
   26722    25650    25691 1
   26723    25651    25652 1
   26724    25651    25692 1
   26725    25651    25693 1
   26726    25652    25653 1
   26727    25652    25659 1
   26728    25652    25694 1
   26729    25653    25654 1
   26730    25653    25695 1
   26731    25653    25696 1
   26732    25654    25655 1
   26733    25654    25697 1
   26734    25654    25698 1
   26735    25655    25656 1
   26736    25655    25699 1
   26737    25655    25700 1
   26738    25656    25657 1
   26739    25656    25701 1
   26740    25656    25702 1
   26741    25657    25658 1
   26742    25657    25703 1
   26743    25657    25704 1
   26744    25658    25705 1
   26745    25658    25706 1
   26746    25658    25707 1
   26747    25659    25660 1
   26748    25659    25708 1
   26749    25659    25709 1
   26750    25660    25661 1
   26751    25661    25662 1
   26752    25661    25710 1
   26753    25661    25711 1
   26754    25662    25663 1
   26755    25662    25669 1
   26756    25662    25712 1
   26757    25663    25664 1
   26758    25663    25713 1
   26759    25663    25714 1
   26760    25664    25665 1
   26761    25664    25715 1
   26762    25664    25716 1
   26763    25665    25666 1
   26764    25665    25717 1
   26765    25665    25718 1
   26766    25666    25667 1
   26767    25666    25719 1
   26768    25666    25720 1
   26769    25667    25668 1
   26770    25667    25721 1
   26771    25667    25722 1
   26772    25668    25723 1
   26773    25668    25724 1
   26774    25668    25725 1
   26775    25669    25670 1
   26776    25669    25726 1
   26777    25669    25727 1
   26778    25670    25671 1
   26779    25670    25728 1
   26780    25670    25729 1
   26781    25671    25672 1
   26782    25671    25730 1
   26783    25671    25731 1
   26784    25672    25673 1
   26785    25672    25732 1
   26786    25672    25733 1
   26787    25673    25674 1
   26788    25673    25734 1
   26789    25673    25735 1
   26790    25674    25675 1
   26791    25674    25736 1
   26792    25674    25737 1
   26793    25675    25676 1
   26794    25675    25738 1
   26795    25675    25739 1
   26796    25676    25740 1
   26797    25676    25741 1
   26798    25676    25742 1
   26799    25743    25744 1
   26800    25743    25750 1
   26801    25743    25782 1
   26802    25744    25745 1
   26803    25744    25748 1
   26804    25745    25746 1
   26805    25745    25749 1
   26806    25746    25747 1
   26807    25747    25748 1
   26808    25747    25758 1
   26809    25748    25754 1
   26810    25749    25750 1
   26811    25749    25753 1
   26812    25750    25751 1
   26813    25751    25752 1
   26814    25751    25755 1
   26815    25752    25753 1
   26816    25756    25757 1
   26817    25756    25764 1
   26818    25757    25758 1
   26819    25757    25765 1
   26820    25758    25759 1
   26821    25759    25760 1
   26822    25759    25763 1
   26823    25760    25761 1
   26824    25761    25762 1
   26825    25762    25763 1
   26826    25763    25764 1
   26827    25764    25874 1
   26828    25766    25767 1
   26829    25766    25799 1
   26830    25766    25800 1
   26831    25766    25801 1
   26832    25767    25768 1
   26833    25767    25802 1
   26834    25767    25803 1
   26835    25768    25769 1
   26836    25768    25804 1
   26837    25768    25805 1
   26838    25769    25770 1
   26839    25769    25806 1
   26840    25769    25807 1
   26841    25770    25771 1
   26842    25770    25808 1
   26843    25770    25809 1
   26844    25771    25772 1
   26845    25771    25810 1
   26846    25771    25811 1
   26847    25772    25773 1
   26848    25772    25812 1
   26849    25772    25813 1
   26850    25773    25774 1
   26851    25773    25814 1
   26852    25773    25815 1
   26853    25774    25775 1
   26854    25774    25781 1
   26855    25774    25816 1
   26856    25775    25776 1
   26857    25775    25817 1
   26858    25775    25818 1
   26859    25776    25777 1
   26860    25776    25819 1
   26861    25776    25820 1
   26862    25777    25778 1
   26863    25777    25821 1
   26864    25777    25822 1
   26865    25778    25779 1
   26866    25778    25823 1
   26867    25778    25824 1
   26868    25779    25780 1
   26869    25779    25825 1
   26870    25779    25826 1
   26871    25780    25827 1
   26872    25780    25828 1
   26873    25780    25829 1
   26874    25781    25782 1
   26875    25781    25830 1
   26876    25781    25831 1
   26877    25782    25783 1
   26878    25783    25784 1
   26879    25783    25832 1
   26880    25783    25833 1
   26881    25784    25785 1
   26882    25784    25791 1
   26883    25784    25834 1
   26884    25785    25786 1
   26885    25785    25835 1
   26886    25785    25836 1
   26887    25786    25787 1
   26888    25786    25837 1
   26889    25786    25838 1
   26890    25787    25788 1
   26891    25787    25839 1
   26892    25787    25840 1
   26893    25788    25789 1
   26894    25788    25841 1
   26895    25788    25842 1
   26896    25789    25790 1
   26897    25789    25843 1
   26898    25789    25844 1
   26899    25790    25845 1
   26900    25790    25846 1
   26901    25790    25847 1
   26902    25791    25792 1
   26903    25791    25848 1
   26904    25791    25849 1
   26905    25792    25793 1
   26906    25792    25850 1
   26907    25792    25851 1
   26908    25793    25794 1
   26909    25793    25852 1
   26910    25793    25853 1
   26911    25794    25795 1
   26912    25794    25854 1
   26913    25794    25855 1
   26914    25795    25796 1
   26915    25795    25856 1
   26916    25795    25857 1
   26917    25796    25797 1
   26918    25796    25858 1
   26919    25796    25859 1
   26920    25797    25798 1
   26921    25797    25860 1
   26922    25797    25861 1
   26923    25798    25862 1
   26924    25798    25863 1
   26925    25798    25864 1
   26926    25865    25866 1
   26927    25865    25872 1
   26928    25865    25904 1
   26929    25866    25867 1
   26930    25866    25870 1
   26931    25867    25868 1
   26932    25867    25871 1
   26933    25868    25869 1
   26934    25869    25870 1
   26935    25869    25880 1
   26936    25870    25876 1
   26937    25871    25872 1
   26938    25871    25875 1
   26939    25872    25873 1
   26940    25873    25874 1
   26941    25873    25877 1
   26942    25874    25875 1
   26943    25878    25879 1
   26944    25878    25886 1
   26945    25879    25880 1
   26946    25879    25887 1
   26947    25880    25881 1
   26948    25881    25882 1
   26949    25881    25885 1
   26950    25882    25883 1
   26951    25883    25884 1
   26952    25884    25885 1
   26953    25885    25886 1
   26954    25886    25996 1
   26955    25888    25889 1
   26956    25888    25921 1
   26957    25888    25922 1
   26958    25888    25923 1
   26959    25889    25890 1
   26960    25889    25924 1
   26961    25889    25925 1
   26962    25890    25891 1
   26963    25890    25926 1
   26964    25890    25927 1
   26965    25891    25892 1
   26966    25891    25928 1
   26967    25891    25929 1
   26968    25892    25893 1
   26969    25892    25930 1
   26970    25892    25931 1
   26971    25893    25894 1
   26972    25893    25932 1
   26973    25893    25933 1
   26974    25894    25895 1
   26975    25894    25934 1
   26976    25894    25935 1
   26977    25895    25896 1
   26978    25895    25936 1
   26979    25895    25937 1
   26980    25896    25897 1
   26981    25896    25903 1
   26982    25896    25938 1
   26983    25897    25898 1
   26984    25897    25939 1
   26985    25897    25940 1
   26986    25898    25899 1
   26987    25898    25941 1
   26988    25898    25942 1
   26989    25899    25900 1
   26990    25899    25943 1
   26991    25899    25944 1
   26992    25900    25901 1
   26993    25900    25945 1
   26994    25900    25946 1
   26995    25901    25902 1
   26996    25901    25947 1
   26997    25901    25948 1
   26998    25902    25949 1
   26999    25902    25950 1
   27000    25902    25951 1
   27001    25903    25904 1
   27002    25903    25952 1
   27003    25903    25953 1
   27004    25904    25905 1
   27005    25905    25906 1
   27006    25905    25954 1
   27007    25905    25955 1
   27008    25906    25907 1
   27009    25906    25913 1
   27010    25906    25956 1
   27011    25907    25908 1
   27012    25907    25957 1
   27013    25907    25958 1
   27014    25908    25909 1
   27015    25908    25959 1
   27016    25908    25960 1
   27017    25909    25910 1
   27018    25909    25961 1
   27019    25909    25962 1
   27020    25910    25911 1
   27021    25910    25963 1
   27022    25910    25964 1
   27023    25911    25912 1
   27024    25911    25965 1
   27025    25911    25966 1
   27026    25912    25967 1
   27027    25912    25968 1
   27028    25912    25969 1
   27029    25913    25914 1
   27030    25913    25970 1
   27031    25913    25971 1
   27032    25914    25915 1
   27033    25914    25972 1
   27034    25914    25973 1
   27035    25915    25916 1
   27036    25915    25974 1
   27037    25915    25975 1
   27038    25916    25917 1
   27039    25916    25976 1
   27040    25916    25977 1
   27041    25917    25918 1
   27042    25917    25978 1
   27043    25917    25979 1
   27044    25918    25919 1
   27045    25918    25980 1
   27046    25918    25981 1
   27047    25919    25920 1
   27048    25919    25982 1
   27049    25919    25983 1
   27050    25920    25984 1
   27051    25920    25985 1
   27052    25920    25986 1
   27053    25987    25988 1
   27054    25987    25994 1
   27055    25987    26026 1
   27056    25988    25989 1
   27057    25988    25992 1
   27058    25989    25990 1
   27059    25989    25993 1
   27060    25990    25991 1
   27061    25991    25992 1
   27062    25991    26002 1
   27063    25992    25998 1
   27064    25993    25994 1
   27065    25993    25997 1
   27066    25994    25995 1
   27067    25995    25996 1
   27068    25995    25999 1
   27069    25996    25997 1
   27070    26000    26001 1
   27071    26000    26008 1
   27072    26001    26002 1
   27073    26001    26009 1
   27074    26002    26003 1
   27075    26003    26004 1
   27076    26003    26007 1
   27077    26004    26005 1
   27078    26005    26006 1
   27079    26006    26007 1
   27080    26007    26008 1
   27081    26008    26118 1
   27082    26010    26011 1
   27083    26010    26043 1
   27084    26010    26044 1
   27085    26010    26045 1
   27086    26011    26012 1
   27087    26011    26046 1
   27088    26011    26047 1
   27089    26012    26013 1
   27090    26012    26048 1
   27091    26012    26049 1
   27092    26013    26014 1
   27093    26013    26050 1
   27094    26013    26051 1
   27095    26014    26015 1
   27096    26014    26052 1
   27097    26014    26053 1
   27098    26015    26016 1
   27099    26015    26054 1
   27100    26015    26055 1
   27101    26016    26017 1
   27102    26016    26056 1
   27103    26016    26057 1
   27104    26017    26018 1
   27105    26017    26058 1
   27106    26017    26059 1
   27107    26018    26019 1
   27108    26018    26025 1
   27109    26018    26060 1
   27110    26019    26020 1
   27111    26019    26061 1
   27112    26019    26062 1
   27113    26020    26021 1
   27114    26020    26063 1
   27115    26020    26064 1
   27116    26021    26022 1
   27117    26021    26065 1
   27118    26021    26066 1
   27119    26022    26023 1
   27120    26022    26067 1
   27121    26022    26068 1
   27122    26023    26024 1
   27123    26023    26069 1
   27124    26023    26070 1
   27125    26024    26071 1
   27126    26024    26072 1
   27127    26024    26073 1
   27128    26025    26026 1
   27129    26025    26074 1
   27130    26025    26075 1
   27131    26026    26027 1
   27132    26027    26028 1
   27133    26027    26076 1
   27134    26027    26077 1
   27135    26028    26029 1
   27136    26028    26035 1
   27137    26028    26078 1
   27138    26029    26030 1
   27139    26029    26079 1
   27140    26029    26080 1
   27141    26030    26031 1
   27142    26030    26081 1
   27143    26030    26082 1
   27144    26031    26032 1
   27145    26031    26083 1
   27146    26031    26084 1
   27147    26032    26033 1
   27148    26032    26085 1
   27149    26032    26086 1
   27150    26033    26034 1
   27151    26033    26087 1
   27152    26033    26088 1
   27153    26034    26089 1
   27154    26034    26090 1
   27155    26034    26091 1
   27156    26035    26036 1
   27157    26035    26092 1
   27158    26035    26093 1
   27159    26036    26037 1
   27160    26036    26094 1
   27161    26036    26095 1
   27162    26037    26038 1
   27163    26037    26096 1
   27164    26037    26097 1
   27165    26038    26039 1
   27166    26038    26098 1
   27167    26038    26099 1
   27168    26039    26040 1
   27169    26039    26100 1
   27170    26039    26101 1
   27171    26040    26041 1
   27172    26040    26102 1
   27173    26040    26103 1
   27174    26041    26042 1
   27175    26041    26104 1
   27176    26041    26105 1
   27177    26042    26106 1
   27178    26042    26107 1
   27179    26042    26108 1
   27180    26109    26110 1
   27181    26109    26116 1
   27182    26109    26148 1
   27183    26110    26111 1
   27184    26110    26114 1
   27185    26111    26112 1
   27186    26111    26115 1
   27187    26112    26113 1
   27188    26113    26114 1
   27189    26113    26124 1
   27190    26114    26120 1
   27191    26115    26116 1
   27192    26115    26119 1
   27193    26116    26117 1
   27194    26117    26118 1
   27195    26117    26121 1
   27196    26118    26119 1
   27197    26122    26123 1
   27198    26122    26130 1
   27199    26123    26124 1
   27200    26123    26131 1
   27201    26124    26125 1
   27202    26125    26126 1
   27203    26125    26129 1
   27204    26126    26127 1
   27205    26127    26128 1
   27206    26128    26129 1
   27207    26129    26130 1
   27208    26130    26240 1
   27209    26132    26133 1
   27210    26132    26165 1
   27211    26132    26166 1
   27212    26132    26167 1
   27213    26133    26134 1
   27214    26133    26168 1
   27215    26133    26169 1
   27216    26134    26135 1
   27217    26134    26170 1
   27218    26134    26171 1
   27219    26135    26136 1
   27220    26135    26172 1
   27221    26135    26173 1
   27222    26136    26137 1
   27223    26136    26174 1
   27224    26136    26175 1
   27225    26137    26138 1
   27226    26137    26176 1
   27227    26137    26177 1
   27228    26138    26139 1
   27229    26138    26178 1
   27230    26138    26179 1
   27231    26139    26140 1
   27232    26139    26180 1
   27233    26139    26181 1
   27234    26140    26141 1
   27235    26140    26147 1
   27236    26140    26182 1
   27237    26141    26142 1
   27238    26141    26183 1
   27239    26141    26184 1
   27240    26142    26143 1
   27241    26142    26185 1
   27242    26142    26186 1
   27243    26143    26144 1
   27244    26143    26187 1
   27245    26143    26188 1
   27246    26144    26145 1
   27247    26144    26189 1
   27248    26144    26190 1
   27249    26145    26146 1
   27250    26145    26191 1
   27251    26145    26192 1
   27252    26146    26193 1
   27253    26146    26194 1
   27254    26146    26195 1
   27255    26147    26148 1
   27256    26147    26196 1
   27257    26147    26197 1
   27258    26148    26149 1
   27259    26149    26150 1
   27260    26149    26198 1
   27261    26149    26199 1
   27262    26150    26151 1
   27263    26150    26157 1
   27264    26150    26200 1
   27265    26151    26152 1
   27266    26151    26201 1
   27267    26151    26202 1
   27268    26152    26153 1
   27269    26152    26203 1
   27270    26152    26204 1
   27271    26153    26154 1
   27272    26153    26205 1
   27273    26153    26206 1
   27274    26154    26155 1
   27275    26154    26207 1
   27276    26154    26208 1
   27277    26155    26156 1
   27278    26155    26209 1
   27279    26155    26210 1
   27280    26156    26211 1
   27281    26156    26212 1
   27282    26156    26213 1
   27283    26157    26158 1
   27284    26157    26214 1
   27285    26157    26215 1
   27286    26158    26159 1
   27287    26158    26216 1
   27288    26158    26217 1
   27289    26159    26160 1
   27290    26159    26218 1
   27291    26159    26219 1
   27292    26160    26161 1
   27293    26160    26220 1
   27294    26160    26221 1
   27295    26161    26162 1
   27296    26161    26222 1
   27297    26161    26223 1
   27298    26162    26163 1
   27299    26162    26224 1
   27300    26162    26225 1
   27301    26163    26164 1
   27302    26163    26226 1
   27303    26163    26227 1
   27304    26164    26228 1
   27305    26164    26229 1
   27306    26164    26230 1
   27307    26231    26232 1
   27308    26231    26238 1
   27309    26231    26270 1
   27310    26232    26233 1
   27311    26232    26236 1
   27312    26233    26234 1
   27313    26233    26237 1
   27314    26234    26235 1
   27315    26235    26236 1
   27316    26235    26246 1
   27317    26236    26242 1
   27318    26237    26238 1
   27319    26237    26241 1
   27320    26238    26239 1
   27321    26239    26240 1
   27322    26239    26243 1
   27323    26240    26241 1
   27324    26244    26245 1
   27325    26244    26252 1
   27326    26245    26246 1
   27327    26245    26253 1
   27328    26246    26247 1
   27329    26247    26248 1
   27330    26247    26251 1
   27331    26248    26249 1
   27332    26249    26250 1
   27333    26250    26251 1
   27334    26251    26252 1
   27335    26252    26362 1
   27336    26254    26255 1
   27337    26254    26287 1
   27338    26254    26288 1
   27339    26254    26289 1
   27340    26255    26256 1
   27341    26255    26290 1
   27342    26255    26291 1
   27343    26256    26257 1
   27344    26256    26292 1
   27345    26256    26293 1
   27346    26257    26258 1
   27347    26257    26294 1
   27348    26257    26295 1
   27349    26258    26259 1
   27350    26258    26296 1
   27351    26258    26297 1
   27352    26259    26260 1
   27353    26259    26298 1
   27354    26259    26299 1
   27355    26260    26261 1
   27356    26260    26300 1
   27357    26260    26301 1
   27358    26261    26262 1
   27359    26261    26302 1
   27360    26261    26303 1
   27361    26262    26263 1
   27362    26262    26269 1
   27363    26262    26304 1
   27364    26263    26264 1
   27365    26263    26305 1
   27366    26263    26306 1
   27367    26264    26265 1
   27368    26264    26307 1
   27369    26264    26308 1
   27370    26265    26266 1
   27371    26265    26309 1
   27372    26265    26310 1
   27373    26266    26267 1
   27374    26266    26311 1
   27375    26266    26312 1
   27376    26267    26268 1
   27377    26267    26313 1
   27378    26267    26314 1
   27379    26268    26315 1
   27380    26268    26316 1
   27381    26268    26317 1
   27382    26269    26270 1
   27383    26269    26318 1
   27384    26269    26319 1
   27385    26270    26271 1
   27386    26271    26272 1
   27387    26271    26320 1
   27388    26271    26321 1
   27389    26272    26273 1
   27390    26272    26279 1
   27391    26272    26322 1
   27392    26273    26274 1
   27393    26273    26323 1
   27394    26273    26324 1
   27395    26274    26275 1
   27396    26274    26325 1
   27397    26274    26326 1
   27398    26275    26276 1
   27399    26275    26327 1
   27400    26275    26328 1
   27401    26276    26277 1
   27402    26276    26329 1
   27403    26276    26330 1
   27404    26277    26278 1
   27405    26277    26331 1
   27406    26277    26332 1
   27407    26278    26333 1
   27408    26278    26334 1
   27409    26278    26335 1
   27410    26279    26280 1
   27411    26279    26336 1
   27412    26279    26337 1
   27413    26280    26281 1
   27414    26280    26338 1
   27415    26280    26339 1
   27416    26281    26282 1
   27417    26281    26340 1
   27418    26281    26341 1
   27419    26282    26283 1
   27420    26282    26342 1
   27421    26282    26343 1
   27422    26283    26284 1
   27423    26283    26344 1
   27424    26283    26345 1
   27425    26284    26285 1
   27426    26284    26346 1
   27427    26284    26347 1
   27428    26285    26286 1
   27429    26285    26348 1
   27430    26285    26349 1
   27431    26286    26350 1
   27432    26286    26351 1
   27433    26286    26352 1
   27434    26353    26354 1
   27435    26353    26360 1
   27436    26353    26392 1
   27437    26354    26355 1
   27438    26354    26358 1
   27439    26355    26356 1
   27440    26355    26359 1
   27441    26356    26357 1
   27442    26357    26358 1
   27443    26357    26368 1
   27444    26358    26364 1
   27445    26359    26360 1
   27446    26359    26363 1
   27447    26360    26361 1
   27448    26361    26362 1
   27449    26361    26365 1
   27450    26362    26363 1
   27451    26366    26367 1
   27452    26366    26374 1
   27453    26367    26368 1
   27454    26367    26375 1
   27455    26368    26369 1
   27456    26369    26370 1
   27457    26369    26373 1
   27458    26370    26371 1
   27459    26371    26372 1
   27460    26372    26373 1
   27461    26373    26374 1
   27462    26374    26484 1
   27463    26376    26377 1
   27464    26376    26409 1
   27465    26376    26410 1
   27466    26376    26411 1
   27467    26377    26378 1
   27468    26377    26412 1
   27469    26377    26413 1
   27470    26378    26379 1
   27471    26378    26414 1
   27472    26378    26415 1
   27473    26379    26380 1
   27474    26379    26416 1
   27475    26379    26417 1
   27476    26380    26381 1
   27477    26380    26418 1
   27478    26380    26419 1
   27479    26381    26382 1
   27480    26381    26420 1
   27481    26381    26421 1
   27482    26382    26383 1
   27483    26382    26422 1
   27484    26382    26423 1
   27485    26383    26384 1
   27486    26383    26424 1
   27487    26383    26425 1
   27488    26384    26385 1
   27489    26384    26391 1
   27490    26384    26426 1
   27491    26385    26386 1
   27492    26385    26427 1
   27493    26385    26428 1
   27494    26386    26387 1
   27495    26386    26429 1
   27496    26386    26430 1
   27497    26387    26388 1
   27498    26387    26431 1
   27499    26387    26432 1
   27500    26388    26389 1
   27501    26388    26433 1
   27502    26388    26434 1
   27503    26389    26390 1
   27504    26389    26435 1
   27505    26389    26436 1
   27506    26390    26437 1
   27507    26390    26438 1
   27508    26390    26439 1
   27509    26391    26392 1
   27510    26391    26440 1
   27511    26391    26441 1
   27512    26392    26393 1
   27513    26393    26394 1
   27514    26393    26442 1
   27515    26393    26443 1
   27516    26394    26395 1
   27517    26394    26401 1
   27518    26394    26444 1
   27519    26395    26396 1
   27520    26395    26445 1
   27521    26395    26446 1
   27522    26396    26397 1
   27523    26396    26447 1
   27524    26396    26448 1
   27525    26397    26398 1
   27526    26397    26449 1
   27527    26397    26450 1
   27528    26398    26399 1
   27529    26398    26451 1
   27530    26398    26452 1
   27531    26399    26400 1
   27532    26399    26453 1
   27533    26399    26454 1
   27534    26400    26455 1
   27535    26400    26456 1
   27536    26400    26457 1
   27537    26401    26402 1
   27538    26401    26458 1
   27539    26401    26459 1
   27540    26402    26403 1
   27541    26402    26460 1
   27542    26402    26461 1
   27543    26403    26404 1
   27544    26403    26462 1
   27545    26403    26463 1
   27546    26404    26405 1
   27547    26404    26464 1
   27548    26404    26465 1
   27549    26405    26406 1
   27550    26405    26466 1
   27551    26405    26467 1
   27552    26406    26407 1
   27553    26406    26468 1
   27554    26406    26469 1
   27555    26407    26408 1
   27556    26407    26470 1
   27557    26407    26471 1
   27558    26408    26472 1
   27559    26408    26473 1
   27560    26408    26474 1
   27561    26475    26476 1
   27562    26475    26482 1
   27563    26475    26514 1
   27564    26476    26477 1
   27565    26476    26480 1
   27566    26477    26478 1
   27567    26477    26481 1
   27568    26478    26479 1
   27569    26479    26480 1
   27570    26479    26490 1
   27571    26480    26486 1
   27572    26481    26482 1
   27573    26481    26485 1
   27574    26482    26483 1
   27575    26483    26484 1
   27576    26483    26487 1
   27577    26484    26485 1
   27578    26488    26489 1
   27579    26488    26496 1
   27580    26489    26490 1
   27581    26489    26497 1
   27582    26490    26491 1
   27583    26491    26492 1
   27584    26491    26495 1
   27585    26492    26493 1
   27586    26493    26494 1
   27587    26494    26495 1
   27588    26495    26496 1
   27589    26496    26606 1
   27590    26498    26499 1
   27591    26498    26531 1
   27592    26498    26532 1
   27593    26498    26533 1
   27594    26499    26500 1
   27595    26499    26534 1
   27596    26499    26535 1
   27597    26500    26501 1
   27598    26500    26536 1
   27599    26500    26537 1
   27600    26501    26502 1
   27601    26501    26538 1
   27602    26501    26539 1
   27603    26502    26503 1
   27604    26502    26540 1
   27605    26502    26541 1
   27606    26503    26504 1
   27607    26503    26542 1
   27608    26503    26543 1
   27609    26504    26505 1
   27610    26504    26544 1
   27611    26504    26545 1
   27612    26505    26506 1
   27613    26505    26546 1
   27614    26505    26547 1
   27615    26506    26507 1
   27616    26506    26513 1
   27617    26506    26548 1
   27618    26507    26508 1
   27619    26507    26549 1
   27620    26507    26550 1
   27621    26508    26509 1
   27622    26508    26551 1
   27623    26508    26552 1
   27624    26509    26510 1
   27625    26509    26553 1
   27626    26509    26554 1
   27627    26510    26511 1
   27628    26510    26555 1
   27629    26510    26556 1
   27630    26511    26512 1
   27631    26511    26557 1
   27632    26511    26558 1
   27633    26512    26559 1
   27634    26512    26560 1
   27635    26512    26561 1
   27636    26513    26514 1
   27637    26513    26562 1
   27638    26513    26563 1
   27639    26514    26515 1
   27640    26515    26516 1
   27641    26515    26564 1
   27642    26515    26565 1
   27643    26516    26517 1
   27644    26516    26523 1
   27645    26516    26566 1
   27646    26517    26518 1
   27647    26517    26567 1
   27648    26517    26568 1
   27649    26518    26519 1
   27650    26518    26569 1
   27651    26518    26570 1
   27652    26519    26520 1
   27653    26519    26571 1
   27654    26519    26572 1
   27655    26520    26521 1
   27656    26520    26573 1
   27657    26520    26574 1
   27658    26521    26522 1
   27659    26521    26575 1
   27660    26521    26576 1
   27661    26522    26577 1
   27662    26522    26578 1
   27663    26522    26579 1
   27664    26523    26524 1
   27665    26523    26580 1
   27666    26523    26581 1
   27667    26524    26525 1
   27668    26524    26582 1
   27669    26524    26583 1
   27670    26525    26526 1
   27671    26525    26584 1
   27672    26525    26585 1
   27673    26526    26527 1
   27674    26526    26586 1
   27675    26526    26587 1
   27676    26527    26528 1
   27677    26527    26588 1
   27678    26527    26589 1
   27679    26528    26529 1
   27680    26528    26590 1
   27681    26528    26591 1
   27682    26529    26530 1
   27683    26529    26592 1
   27684    26529    26593 1
   27685    26530    26594 1
   27686    26530    26595 1
   27687    26530    26596 1
   27688    26597    26598 1
   27689    26597    26604 1
   27690    26597    26636 1
   27691    26598    26599 1
   27692    26598    26602 1
   27693    26599    26600 1
   27694    26599    26603 1
   27695    26600    26601 1
   27696    26601    26602 1
   27697    26601    26612 1
   27698    26602    26608 1
   27699    26603    26604 1
   27700    26603    26607 1
   27701    26604    26605 1
   27702    26605    26606 1
   27703    26605    26609 1
   27704    26606    26607 1
   27705    26610    26611 1
   27706    26610    26618 1
   27707    26611    26612 1
   27708    26611    26619 1
   27709    26612    26613 1
   27710    26613    26614 1
   27711    26613    26617 1
   27712    26614    26615 1
   27713    26615    26616 1
   27714    26616    26617 1
   27715    26617    26618 1
   27716    26618    26728 1
   27717    26620    26621 1
   27718    26620    26653 1
   27719    26620    26654 1
   27720    26620    26655 1
   27721    26621    26622 1
   27722    26621    26656 1
   27723    26621    26657 1
   27724    26622    26623 1
   27725    26622    26658 1
   27726    26622    26659 1
   27727    26623    26624 1
   27728    26623    26660 1
   27729    26623    26661 1
   27730    26624    26625 1
   27731    26624    26662 1
   27732    26624    26663 1
   27733    26625    26626 1
   27734    26625    26664 1
   27735    26625    26665 1
   27736    26626    26627 1
   27737    26626    26666 1
   27738    26626    26667 1
   27739    26627    26628 1
   27740    26627    26668 1
   27741    26627    26669 1
   27742    26628    26629 1
   27743    26628    26635 1
   27744    26628    26670 1
   27745    26629    26630 1
   27746    26629    26671 1
   27747    26629    26672 1
   27748    26630    26631 1
   27749    26630    26673 1
   27750    26630    26674 1
   27751    26631    26632 1
   27752    26631    26675 1
   27753    26631    26676 1
   27754    26632    26633 1
   27755    26632    26677 1
   27756    26632    26678 1
   27757    26633    26634 1
   27758    26633    26679 1
   27759    26633    26680 1
   27760    26634    26681 1
   27761    26634    26682 1
   27762    26634    26683 1
   27763    26635    26636 1
   27764    26635    26684 1
   27765    26635    26685 1
   27766    26636    26637 1
   27767    26637    26638 1
   27768    26637    26686 1
   27769    26637    26687 1
   27770    26638    26639 1
   27771    26638    26645 1
   27772    26638    26688 1
   27773    26639    26640 1
   27774    26639    26689 1
   27775    26639    26690 1
   27776    26640    26641 1
   27777    26640    26691 1
   27778    26640    26692 1
   27779    26641    26642 1
   27780    26641    26693 1
   27781    26641    26694 1
   27782    26642    26643 1
   27783    26642    26695 1
   27784    26642    26696 1
   27785    26643    26644 1
   27786    26643    26697 1
   27787    26643    26698 1
   27788    26644    26699 1
   27789    26644    26700 1
   27790    26644    26701 1
   27791    26645    26646 1
   27792    26645    26702 1
   27793    26645    26703 1
   27794    26646    26647 1
   27795    26646    26704 1
   27796    26646    26705 1
   27797    26647    26648 1
   27798    26647    26706 1
   27799    26647    26707 1
   27800    26648    26649 1
   27801    26648    26708 1
   27802    26648    26709 1
   27803    26649    26650 1
   27804    26649    26710 1
   27805    26649    26711 1
   27806    26650    26651 1
   27807    26650    26712 1
   27808    26650    26713 1
   27809    26651    26652 1
   27810    26651    26714 1
   27811    26651    26715 1
   27812    26652    26716 1
   27813    26652    26717 1
   27814    26652    26718 1
   27815    26719    26720 1
   27816    26719    26726 1
   27817    26719    26758 1
   27818    26720    26721 1
   27819    26720    26724 1
   27820    26721    26722 1
   27821    26721    26725 1
   27822    26722    26723 1
   27823    26723    26724 1
   27824    26723    26734 1
   27825    26724    26730 1
   27826    26725    26726 1
   27827    26725    26729 1
   27828    26726    26727 1
   27829    26727    26728 1
   27830    26727    26731 1
   27831    26728    26729 1
   27832    26732    26733 1
   27833    26732    26740 1
   27834    26733    26734 1
   27835    26733    26741 1
   27836    26734    26735 1
   27837    26735    26736 1
   27838    26735    26739 1
   27839    26736    26737 1
   27840    26737    26738 1
   27841    26738    26739 1
   27842    26739    26740 1
   27843    26740    26850 1
   27844    26742    26743 1
   27845    26742    26775 1
   27846    26742    26776 1
   27847    26742    26777 1
   27848    26743    26744 1
   27849    26743    26778 1
   27850    26743    26779 1
   27851    26744    26745 1
   27852    26744    26780 1
   27853    26744    26781 1
   27854    26745    26746 1
   27855    26745    26782 1
   27856    26745    26783 1
   27857    26746    26747 1
   27858    26746    26784 1
   27859    26746    26785 1
   27860    26747    26748 1
   27861    26747    26786 1
   27862    26747    26787 1
   27863    26748    26749 1
   27864    26748    26788 1
   27865    26748    26789 1
   27866    26749    26750 1
   27867    26749    26790 1
   27868    26749    26791 1
   27869    26750    26751 1
   27870    26750    26757 1
   27871    26750    26792 1
   27872    26751    26752 1
   27873    26751    26793 1
   27874    26751    26794 1
   27875    26752    26753 1
   27876    26752    26795 1
   27877    26752    26796 1
   27878    26753    26754 1
   27879    26753    26797 1
   27880    26753    26798 1
   27881    26754    26755 1
   27882    26754    26799 1
   27883    26754    26800 1
   27884    26755    26756 1
   27885    26755    26801 1
   27886    26755    26802 1
   27887    26756    26803 1
   27888    26756    26804 1
   27889    26756    26805 1
   27890    26757    26758 1
   27891    26757    26806 1
   27892    26757    26807 1
   27893    26758    26759 1
   27894    26759    26760 1
   27895    26759    26808 1
   27896    26759    26809 1
   27897    26760    26761 1
   27898    26760    26767 1
   27899    26760    26810 1
   27900    26761    26762 1
   27901    26761    26811 1
   27902    26761    26812 1
   27903    26762    26763 1
   27904    26762    26813 1
   27905    26762    26814 1
   27906    26763    26764 1
   27907    26763    26815 1
   27908    26763    26816 1
   27909    26764    26765 1
   27910    26764    26817 1
   27911    26764    26818 1
   27912    26765    26766 1
   27913    26765    26819 1
   27914    26765    26820 1
   27915    26766    26821 1
   27916    26766    26822 1
   27917    26766    26823 1
   27918    26767    26768 1
   27919    26767    26824 1
   27920    26767    26825 1
   27921    26768    26769 1
   27922    26768    26826 1
   27923    26768    26827 1
   27924    26769    26770 1
   27925    26769    26828 1
   27926    26769    26829 1
   27927    26770    26771 1
   27928    26770    26830 1
   27929    26770    26831 1
   27930    26771    26772 1
   27931    26771    26832 1
   27932    26771    26833 1
   27933    26772    26773 1
   27934    26772    26834 1
   27935    26772    26835 1
   27936    26773    26774 1
   27937    26773    26836 1
   27938    26773    26837 1
   27939    26774    26838 1
   27940    26774    26839 1
   27941    26774    26840 1
   27942    26841    26842 1
   27943    26841    26848 1
   27944    26841    26880 1
   27945    26842    26843 1
   27946    26842    26846 1
   27947    26843    26844 1
   27948    26843    26847 1
   27949    26844    26845 1
   27950    26845    26846 1
   27951    26845    26856 1
   27952    26846    26852 1
   27953    26847    26848 1
   27954    26847    26851 1
   27955    26848    26849 1
   27956    26849    26850 1
   27957    26849    26853 1
   27958    26850    26851 1
   27959    26854    26855 1
   27960    26854    26862 1
   27961    26855    26856 1
   27962    26855    26863 1
   27963    26856    26857 1
   27964    26857    26858 1
   27965    26857    26861 1
   27966    26858    26859 1
   27967    26859    26860 1
   27968    26860    26861 1
   27969    26861    26862 1
   27970    26862    26972 1
   27971    26864    26865 1
   27972    26864    26897 1
   27973    26864    26898 1
   27974    26864    26899 1
   27975    26865    26866 1
   27976    26865    26900 1
   27977    26865    26901 1
   27978    26866    26867 1
   27979    26866    26902 1
   27980    26866    26903 1
   27981    26867    26868 1
   27982    26867    26904 1
   27983    26867    26905 1
   27984    26868    26869 1
   27985    26868    26906 1
   27986    26868    26907 1
   27987    26869    26870 1
   27988    26869    26908 1
   27989    26869    26909 1
   27990    26870    26871 1
   27991    26870    26910 1
   27992    26870    26911 1
   27993    26871    26872 1
   27994    26871    26912 1
   27995    26871    26913 1
   27996    26872    26873 1
   27997    26872    26879 1
   27998    26872    26914 1
   27999    26873    26874 1
   28000    26873    26915 1
   28001    26873    26916 1
   28002    26874    26875 1
   28003    26874    26917 1
   28004    26874    26918 1
   28005    26875    26876 1
   28006    26875    26919 1
   28007    26875    26920 1
   28008    26876    26877 1
   28009    26876    26921 1
   28010    26876    26922 1
   28011    26877    26878 1
   28012    26877    26923 1
   28013    26877    26924 1
   28014    26878    26925 1
   28015    26878    26926 1
   28016    26878    26927 1
   28017    26879    26880 1
   28018    26879    26928 1
   28019    26879    26929 1
   28020    26880    26881 1
   28021    26881    26882 1
   28022    26881    26930 1
   28023    26881    26931 1
   28024    26882    26883 1
   28025    26882    26889 1
   28026    26882    26932 1
   28027    26883    26884 1
   28028    26883    26933 1
   28029    26883    26934 1
   28030    26884    26885 1
   28031    26884    26935 1
   28032    26884    26936 1
   28033    26885    26886 1
   28034    26885    26937 1
   28035    26885    26938 1
   28036    26886    26887 1
   28037    26886    26939 1
   28038    26886    26940 1
   28039    26887    26888 1
   28040    26887    26941 1
   28041    26887    26942 1
   28042    26888    26943 1
   28043    26888    26944 1
   28044    26888    26945 1
   28045    26889    26890 1
   28046    26889    26946 1
   28047    26889    26947 1
   28048    26890    26891 1
   28049    26890    26948 1
   28050    26890    26949 1
   28051    26891    26892 1
   28052    26891    26950 1
   28053    26891    26951 1
   28054    26892    26893 1
   28055    26892    26952 1
   28056    26892    26953 1
   28057    26893    26894 1
   28058    26893    26954 1
   28059    26893    26955 1
   28060    26894    26895 1
   28061    26894    26956 1
   28062    26894    26957 1
   28063    26895    26896 1
   28064    26895    26958 1
   28065    26895    26959 1
   28066    26896    26960 1
   28067    26896    26961 1
   28068    26896    26962 1
   28069    26963    26964 1
   28070    26963    26970 1
   28071    26963    27002 1
   28072    26964    26965 1
   28073    26964    26968 1
   28074    26965    26966 1
   28075    26965    26969 1
   28076    26966    26967 1
   28077    26967    26968 1
   28078    26967    26978 1
   28079    26968    26974 1
   28080    26969    26970 1
   28081    26969    26973 1
   28082    26970    26971 1
   28083    26971    26972 1
   28084    26971    26975 1
   28085    26972    26973 1
   28086    26976    26977 1
   28087    26976    26984 1
   28088    26977    26978 1
   28089    26977    26985 1
   28090    26978    26979 1
   28091    26979    26980 1
   28092    26979    26983 1
   28093    26980    26981 1
   28094    26981    26982 1
   28095    26982    26983 1
   28096    26983    26984 1
   28097    26984    27094 1
   28098    26986    26987 1
   28099    26986    27019 1
   28100    26986    27020 1
   28101    26986    27021 1
   28102    26987    26988 1
   28103    26987    27022 1
   28104    26987    27023 1
   28105    26988    26989 1
   28106    26988    27024 1
   28107    26988    27025 1
   28108    26989    26990 1
   28109    26989    27026 1
   28110    26989    27027 1
   28111    26990    26991 1
   28112    26990    27028 1
   28113    26990    27029 1
   28114    26991    26992 1
   28115    26991    27030 1
   28116    26991    27031 1
   28117    26992    26993 1
   28118    26992    27032 1
   28119    26992    27033 1
   28120    26993    26994 1
   28121    26993    27034 1
   28122    26993    27035 1
   28123    26994    26995 1
   28124    26994    27001 1
   28125    26994    27036 1
   28126    26995    26996 1
   28127    26995    27037 1
   28128    26995    27038 1
   28129    26996    26997 1
   28130    26996    27039 1
   28131    26996    27040 1
   28132    26997    26998 1
   28133    26997    27041 1
   28134    26997    27042 1
   28135    26998    26999 1
   28136    26998    27043 1
   28137    26998    27044 1
   28138    26999    27000 1
   28139    26999    27045 1
   28140    26999    27046 1
   28141    27000    27047 1
   28142    27000    27048 1
   28143    27000    27049 1
   28144    27001    27002 1
   28145    27001    27050 1
   28146    27001    27051 1
   28147    27002    27003 1
   28148    27003    27004 1
   28149    27003    27052 1
   28150    27003    27053 1
   28151    27004    27005 1
   28152    27004    27011 1
   28153    27004    27054 1
   28154    27005    27006 1
   28155    27005    27055 1
   28156    27005    27056 1
   28157    27006    27007 1
   28158    27006    27057 1
   28159    27006    27058 1
   28160    27007    27008 1
   28161    27007    27059 1
   28162    27007    27060 1
   28163    27008    27009 1
   28164    27008    27061 1
   28165    27008    27062 1
   28166    27009    27010 1
   28167    27009    27063 1
   28168    27009    27064 1
   28169    27010    27065 1
   28170    27010    27066 1
   28171    27010    27067 1
   28172    27011    27012 1
   28173    27011    27068 1
   28174    27011    27069 1
   28175    27012    27013 1
   28176    27012    27070 1
   28177    27012    27071 1
   28178    27013    27014 1
   28179    27013    27072 1
   28180    27013    27073 1
   28181    27014    27015 1
   28182    27014    27074 1
   28183    27014    27075 1
   28184    27015    27016 1
   28185    27015    27076 1
   28186    27015    27077 1
   28187    27016    27017 1
   28188    27016    27078 1
   28189    27016    27079 1
   28190    27017    27018 1
   28191    27017    27080 1
   28192    27017    27081 1
   28193    27018    27082 1
   28194    27018    27083 1
   28195    27018    27084 1
   28196    27085    27086 1
   28197    27085    27092 1
   28198    27085    27124 1
   28199    27086    27087 1
   28200    27086    27090 1
   28201    27087    27088 1
   28202    27087    27091 1
   28203    27088    27089 1
   28204    27089    27090 1
   28205    27089    27100 1
   28206    27090    27096 1
   28207    27091    27092 1
   28208    27091    27095 1
   28209    27092    27093 1
   28210    27093    27094 1
   28211    27093    27097 1
   28212    27094    27095 1
   28213    27098    27099 1
   28214    27098    27106 1
   28215    27099    27100 1
   28216    27099    27107 1
   28217    27100    27101 1
   28218    27101    27102 1
   28219    27101    27105 1
   28220    27102    27103 1
   28221    27103    27104 1
   28222    27104    27105 1
   28223    27105    27106 1
   28224    27106    27216 1
   28225    27108    27109 1
   28226    27108    27141 1
   28227    27108    27142 1
   28228    27108    27143 1
   28229    27109    27110 1
   28230    27109    27144 1
   28231    27109    27145 1
   28232    27110    27111 1
   28233    27110    27146 1
   28234    27110    27147 1
   28235    27111    27112 1
   28236    27111    27148 1
   28237    27111    27149 1
   28238    27112    27113 1
   28239    27112    27150 1
   28240    27112    27151 1
   28241    27113    27114 1
   28242    27113    27152 1
   28243    27113    27153 1
   28244    27114    27115 1
   28245    27114    27154 1
   28246    27114    27155 1
   28247    27115    27116 1
   28248    27115    27156 1
   28249    27115    27157 1
   28250    27116    27117 1
   28251    27116    27123 1
   28252    27116    27158 1
   28253    27117    27118 1
   28254    27117    27159 1
   28255    27117    27160 1
   28256    27118    27119 1
   28257    27118    27161 1
   28258    27118    27162 1
   28259    27119    27120 1
   28260    27119    27163 1
   28261    27119    27164 1
   28262    27120    27121 1
   28263    27120    27165 1
   28264    27120    27166 1
   28265    27121    27122 1
   28266    27121    27167 1
   28267    27121    27168 1
   28268    27122    27169 1
   28269    27122    27170 1
   28270    27122    27171 1
   28271    27123    27124 1
   28272    27123    27172 1
   28273    27123    27173 1
   28274    27124    27125 1
   28275    27125    27126 1
   28276    27125    27174 1
   28277    27125    27175 1
   28278    27126    27127 1
   28279    27126    27133 1
   28280    27126    27176 1
   28281    27127    27128 1
   28282    27127    27177 1
   28283    27127    27178 1
   28284    27128    27129 1
   28285    27128    27179 1
   28286    27128    27180 1
   28287    27129    27130 1
   28288    27129    27181 1
   28289    27129    27182 1
   28290    27130    27131 1
   28291    27130    27183 1
   28292    27130    27184 1
   28293    27131    27132 1
   28294    27131    27185 1
   28295    27131    27186 1
   28296    27132    27187 1
   28297    27132    27188 1
   28298    27132    27189 1
   28299    27133    27134 1
   28300    27133    27190 1
   28301    27133    27191 1
   28302    27134    27135 1
   28303    27134    27192 1
   28304    27134    27193 1
   28305    27135    27136 1
   28306    27135    27194 1
   28307    27135    27195 1
   28308    27136    27137 1
   28309    27136    27196 1
   28310    27136    27197 1
   28311    27137    27138 1
   28312    27137    27198 1
   28313    27137    27199 1
   28314    27138    27139 1
   28315    27138    27200 1
   28316    27138    27201 1
   28317    27139    27140 1
   28318    27139    27202 1
   28319    27139    27203 1
   28320    27140    27204 1
   28321    27140    27205 1
   28322    27140    27206 1
   28323    27207    27208 1
   28324    27207    27214 1
   28325    27207    27246 1
   28326    27208    27209 1
   28327    27208    27212 1
   28328    27209    27210 1
   28329    27209    27213 1
   28330    27210    27211 1
   28331    27211    27212 1
   28332    27211    27222 1
   28333    27212    27218 1
   28334    27213    27214 1
   28335    27213    27217 1
   28336    27214    27215 1
   28337    27215    27216 1
   28338    27215    27219 1
   28339    27216    27217 1
   28340    27220    27221 1
   28341    27220    27228 1
   28342    27221    27222 1
   28343    27221    27229 1
   28344    27222    27223 1
   28345    27223    27224 1
   28346    27223    27227 1
   28347    27224    27225 1
   28348    27225    27226 1
   28349    27226    27227 1
   28350    27227    27228 1
   28351    27228    27338 1
   28352    27230    27231 1
   28353    27230    27263 1
   28354    27230    27264 1
   28355    27230    27265 1
   28356    27231    27232 1
   28357    27231    27266 1
   28358    27231    27267 1
   28359    27232    27233 1
   28360    27232    27268 1
   28361    27232    27269 1
   28362    27233    27234 1
   28363    27233    27270 1
   28364    27233    27271 1
   28365    27234    27235 1
   28366    27234    27272 1
   28367    27234    27273 1
   28368    27235    27236 1
   28369    27235    27274 1
   28370    27235    27275 1
   28371    27236    27237 1
   28372    27236    27276 1
   28373    27236    27277 1
   28374    27237    27238 1
   28375    27237    27278 1
   28376    27237    27279 1
   28377    27238    27239 1
   28378    27238    27245 1
   28379    27238    27280 1
   28380    27239    27240 1
   28381    27239    27281 1
   28382    27239    27282 1
   28383    27240    27241 1
   28384    27240    27283 1
   28385    27240    27284 1
   28386    27241    27242 1
   28387    27241    27285 1
   28388    27241    27286 1
   28389    27242    27243 1
   28390    27242    27287 1
   28391    27242    27288 1
   28392    27243    27244 1
   28393    27243    27289 1
   28394    27243    27290 1
   28395    27244    27291 1
   28396    27244    27292 1
   28397    27244    27293 1
   28398    27245    27246 1
   28399    27245    27294 1
   28400    27245    27295 1
   28401    27246    27247 1
   28402    27247    27248 1
   28403    27247    27296 1
   28404    27247    27297 1
   28405    27248    27249 1
   28406    27248    27255 1
   28407    27248    27298 1
   28408    27249    27250 1
   28409    27249    27299 1
   28410    27249    27300 1
   28411    27250    27251 1
   28412    27250    27301 1
   28413    27250    27302 1
   28414    27251    27252 1
   28415    27251    27303 1
   28416    27251    27304 1
   28417    27252    27253 1
   28418    27252    27305 1
   28419    27252    27306 1
   28420    27253    27254 1
   28421    27253    27307 1
   28422    27253    27308 1
   28423    27254    27309 1
   28424    27254    27310 1
   28425    27254    27311 1
   28426    27255    27256 1
   28427    27255    27312 1
   28428    27255    27313 1
   28429    27256    27257 1
   28430    27256    27314 1
   28431    27256    27315 1
   28432    27257    27258 1
   28433    27257    27316 1
   28434    27257    27317 1
   28435    27258    27259 1
   28436    27258    27318 1
   28437    27258    27319 1
   28438    27259    27260 1
   28439    27259    27320 1
   28440    27259    27321 1
   28441    27260    27261 1
   28442    27260    27322 1
   28443    27260    27323 1
   28444    27261    27262 1
   28445    27261    27324 1
   28446    27261    27325 1
   28447    27262    27326 1
   28448    27262    27327 1
   28449    27262    27328 1
   28450    27329    27330 1
   28451    27329    27336 1
   28452    27329    27368 1
   28453    27330    27331 1
   28454    27330    27334 1
   28455    27331    27332 1
   28456    27331    27335 1
   28457    27332    27333 1
   28458    27333    27334 1
   28459    27333    27344 1
   28460    27334    27340 1
   28461    27335    27336 1
   28462    27335    27339 1
   28463    27336    27337 1
   28464    27337    27338 1
   28465    27337    27341 1
   28466    27338    27339 1
   28467    27342    27343 1
   28468    27342    27350 1
   28469    27343    27344 1
   28470    27343    27351 1
   28471    27344    27345 1
   28472    27345    27346 1
   28473    27345    27349 1
   28474    27346    27347 1
   28475    27347    27348 1
   28476    27348    27349 1
   28477    27349    27350 1
   28478    27350    27460 1
   28479    27352    27353 1
   28480    27352    27385 1
   28481    27352    27386 1
   28482    27352    27387 1
   28483    27353    27354 1
   28484    27353    27388 1
   28485    27353    27389 1
   28486    27354    27355 1
   28487    27354    27390 1
   28488    27354    27391 1
   28489    27355    27356 1
   28490    27355    27392 1
   28491    27355    27393 1
   28492    27356    27357 1
   28493    27356    27394 1
   28494    27356    27395 1
   28495    27357    27358 1
   28496    27357    27396 1
   28497    27357    27397 1
   28498    27358    27359 1
   28499    27358    27398 1
   28500    27358    27399 1
   28501    27359    27360 1
   28502    27359    27400 1
   28503    27359    27401 1
   28504    27360    27361 1
   28505    27360    27367 1
   28506    27360    27402 1
   28507    27361    27362 1
   28508    27361    27403 1
   28509    27361    27404 1
   28510    27362    27363 1
   28511    27362    27405 1
   28512    27362    27406 1
   28513    27363    27364 1
   28514    27363    27407 1
   28515    27363    27408 1
   28516    27364    27365 1
   28517    27364    27409 1
   28518    27364    27410 1
   28519    27365    27366 1
   28520    27365    27411 1
   28521    27365    27412 1
   28522    27366    27413 1
   28523    27366    27414 1
   28524    27366    27415 1
   28525    27367    27368 1
   28526    27367    27416 1
   28527    27367    27417 1
   28528    27368    27369 1
   28529    27369    27370 1
   28530    27369    27418 1
   28531    27369    27419 1
   28532    27370    27371 1
   28533    27370    27377 1
   28534    27370    27420 1
   28535    27371    27372 1
   28536    27371    27421 1
   28537    27371    27422 1
   28538    27372    27373 1
   28539    27372    27423 1
   28540    27372    27424 1
   28541    27373    27374 1
   28542    27373    27425 1
   28543    27373    27426 1
   28544    27374    27375 1
   28545    27374    27427 1
   28546    27374    27428 1
   28547    27375    27376 1
   28548    27375    27429 1
   28549    27375    27430 1
   28550    27376    27431 1
   28551    27376    27432 1
   28552    27376    27433 1
   28553    27377    27378 1
   28554    27377    27434 1
   28555    27377    27435 1
   28556    27378    27379 1
   28557    27378    27436 1
   28558    27378    27437 1
   28559    27379    27380 1
   28560    27379    27438 1
   28561    27379    27439 1
   28562    27380    27381 1
   28563    27380    27440 1
   28564    27380    27441 1
   28565    27381    27382 1
   28566    27381    27442 1
   28567    27381    27443 1
   28568    27382    27383 1
   28569    27382    27444 1
   28570    27382    27445 1
   28571    27383    27384 1
   28572    27383    27446 1
   28573    27383    27447 1
   28574    27384    27448 1
   28575    27384    27449 1
   28576    27384    27450 1
   28577    27451    27452 1
   28578    27451    27458 1
   28579    27451    27490 1
   28580    27452    27453 1
   28581    27452    27456 1
   28582    27453    27454 1
   28583    27453    27457 1
   28584    27454    27455 1
   28585    27455    27456 1
   28586    27455    27466 1
   28587    27456    27462 1
   28588    27457    27458 1
   28589    27457    27461 1
   28590    27458    27459 1
   28591    27459    27460 1
   28592    27459    27463 1
   28593    27460    27461 1
   28594    27464    27465 1
   28595    27464    27472 1
   28596    27465    27466 1
   28597    27465    27473 1
   28598    27466    27467 1
   28599    27467    27468 1
   28600    27467    27471 1
   28601    27468    27469 1
   28602    27469    27470 1
   28603    27470    27471 1
   28604    27471    27472 1
   28605    27472    27582 1
   28606    27474    27475 1
   28607    27474    27507 1
   28608    27474    27508 1
   28609    27474    27509 1
   28610    27475    27476 1
   28611    27475    27510 1
   28612    27475    27511 1
   28613    27476    27477 1
   28614    27476    27512 1
   28615    27476    27513 1
   28616    27477    27478 1
   28617    27477    27514 1
   28618    27477    27515 1
   28619    27478    27479 1
   28620    27478    27516 1
   28621    27478    27517 1
   28622    27479    27480 1
   28623    27479    27518 1
   28624    27479    27519 1
   28625    27480    27481 1
   28626    27480    27520 1
   28627    27480    27521 1
   28628    27481    27482 1
   28629    27481    27522 1
   28630    27481    27523 1
   28631    27482    27483 1
   28632    27482    27489 1
   28633    27482    27524 1
   28634    27483    27484 1
   28635    27483    27525 1
   28636    27483    27526 1
   28637    27484    27485 1
   28638    27484    27527 1
   28639    27484    27528 1
   28640    27485    27486 1
   28641    27485    27529 1
   28642    27485    27530 1
   28643    27486    27487 1
   28644    27486    27531 1
   28645    27486    27532 1
   28646    27487    27488 1
   28647    27487    27533 1
   28648    27487    27534 1
   28649    27488    27535 1
   28650    27488    27536 1
   28651    27488    27537 1
   28652    27489    27490 1
   28653    27489    27538 1
   28654    27489    27539 1
   28655    27490    27491 1
   28656    27491    27492 1
   28657    27491    27540 1
   28658    27491    27541 1
   28659    27492    27493 1
   28660    27492    27499 1
   28661    27492    27542 1
   28662    27493    27494 1
   28663    27493    27543 1
   28664    27493    27544 1
   28665    27494    27495 1
   28666    27494    27545 1
   28667    27494    27546 1
   28668    27495    27496 1
   28669    27495    27547 1
   28670    27495    27548 1
   28671    27496    27497 1
   28672    27496    27549 1
   28673    27496    27550 1
   28674    27497    27498 1
   28675    27497    27551 1
   28676    27497    27552 1
   28677    27498    27553 1
   28678    27498    27554 1
   28679    27498    27555 1
   28680    27499    27500 1
   28681    27499    27556 1
   28682    27499    27557 1
   28683    27500    27501 1
   28684    27500    27558 1
   28685    27500    27559 1
   28686    27501    27502 1
   28687    27501    27560 1
   28688    27501    27561 1
   28689    27502    27503 1
   28690    27502    27562 1
   28691    27502    27563 1
   28692    27503    27504 1
   28693    27503    27564 1
   28694    27503    27565 1
   28695    27504    27505 1
   28696    27504    27566 1
   28697    27504    27567 1
   28698    27505    27506 1
   28699    27505    27568 1
   28700    27505    27569 1
   28701    27506    27570 1
   28702    27506    27571 1
   28703    27506    27572 1
   28704    27573    27574 1
   28705    27573    27580 1
   28706    27573    27612 1
   28707    27574    27575 1
   28708    27574    27578 1
   28709    27575    27576 1
   28710    27575    27579 1
   28711    27576    27577 1
   28712    27577    27578 1
   28713    27577    27588 1
   28714    27578    27584 1
   28715    27579    27580 1
   28716    27579    27583 1
   28717    27580    27581 1
   28718    27581    27582 1
   28719    27581    27585 1
   28720    27582    27583 1
   28721    27586    27587 1
   28722    27586    27594 1
   28723    27587    27588 1
   28724    27587    27595 1
   28725    27588    27589 1
   28726    27589    27590 1
   28727    27589    27593 1
   28728    27590    27591 1
   28729    27591    27592 1
   28730    27592    27593 1
   28731    27593    27594 1
   28732    27594    27704 1
   28733    27596    27597 1
   28734    27596    27629 1
   28735    27596    27630 1
   28736    27596    27631 1
   28737    27597    27598 1
   28738    27597    27632 1
   28739    27597    27633 1
   28740    27598    27599 1
   28741    27598    27634 1
   28742    27598    27635 1
   28743    27599    27600 1
   28744    27599    27636 1
   28745    27599    27637 1
   28746    27600    27601 1
   28747    27600    27638 1
   28748    27600    27639 1
   28749    27601    27602 1
   28750    27601    27640 1
   28751    27601    27641 1
   28752    27602    27603 1
   28753    27602    27642 1
   28754    27602    27643 1
   28755    27603    27604 1
   28756    27603    27644 1
   28757    27603    27645 1
   28758    27604    27605 1
   28759    27604    27611 1
   28760    27604    27646 1
   28761    27605    27606 1
   28762    27605    27647 1
   28763    27605    27648 1
   28764    27606    27607 1
   28765    27606    27649 1
   28766    27606    27650 1
   28767    27607    27608 1
   28768    27607    27651 1
   28769    27607    27652 1
   28770    27608    27609 1
   28771    27608    27653 1
   28772    27608    27654 1
   28773    27609    27610 1
   28774    27609    27655 1
   28775    27609    27656 1
   28776    27610    27657 1
   28777    27610    27658 1
   28778    27610    27659 1
   28779    27611    27612 1
   28780    27611    27660 1
   28781    27611    27661 1
   28782    27612    27613 1
   28783    27613    27614 1
   28784    27613    27662 1
   28785    27613    27663 1
   28786    27614    27615 1
   28787    27614    27621 1
   28788    27614    27664 1
   28789    27615    27616 1
   28790    27615    27665 1
   28791    27615    27666 1
   28792    27616    27617 1
   28793    27616    27667 1
   28794    27616    27668 1
   28795    27617    27618 1
   28796    27617    27669 1
   28797    27617    27670 1
   28798    27618    27619 1
   28799    27618    27671 1
   28800    27618    27672 1
   28801    27619    27620 1
   28802    27619    27673 1
   28803    27619    27674 1
   28804    27620    27675 1
   28805    27620    27676 1
   28806    27620    27677 1
   28807    27621    27622 1
   28808    27621    27678 1
   28809    27621    27679 1
   28810    27622    27623 1
   28811    27622    27680 1
   28812    27622    27681 1
   28813    27623    27624 1
   28814    27623    27682 1
   28815    27623    27683 1
   28816    27624    27625 1
   28817    27624    27684 1
   28818    27624    27685 1
   28819    27625    27626 1
   28820    27625    27686 1
   28821    27625    27687 1
   28822    27626    27627 1
   28823    27626    27688 1
   28824    27626    27689 1
   28825    27627    27628 1
   28826    27627    27690 1
   28827    27627    27691 1
   28828    27628    27692 1
   28829    27628    27693 1
   28830    27628    27694 1
   28831    27695    27696 1
   28832    27695    27702 1
   28833    27695    27734 1
   28834    27696    27697 1
   28835    27696    27700 1
   28836    27697    27698 1
   28837    27697    27701 1
   28838    27698    27699 1
   28839    27699    27700 1
   28840    27699    27710 1
   28841    27700    27706 1
   28842    27701    27702 1
   28843    27701    27705 1
   28844    27702    27703 1
   28845    27703    27704 1
   28846    27703    27707 1
   28847    27704    27705 1
   28848    27708    27709 1
   28849    27708    27716 1
   28850    27709    27710 1
   28851    27709    27717 1
   28852    27710    27711 1
   28853    27711    27712 1
   28854    27711    27715 1
   28855    27712    27713 1
   28856    27713    27714 1
   28857    27714    27715 1
   28858    27715    27716 1
   28859    27716    27826 1
   28860    27718    27719 1
   28861    27718    27751 1
   28862    27718    27752 1
   28863    27718    27753 1
   28864    27719    27720 1
   28865    27719    27754 1
   28866    27719    27755 1
   28867    27720    27721 1
   28868    27720    27756 1
   28869    27720    27757 1
   28870    27721    27722 1
   28871    27721    27758 1
   28872    27721    27759 1
   28873    27722    27723 1
   28874    27722    27760 1
   28875    27722    27761 1
   28876    27723    27724 1
   28877    27723    27762 1
   28878    27723    27763 1
   28879    27724    27725 1
   28880    27724    27764 1
   28881    27724    27765 1
   28882    27725    27726 1
   28883    27725    27766 1
   28884    27725    27767 1
   28885    27726    27727 1
   28886    27726    27733 1
   28887    27726    27768 1
   28888    27727    27728 1
   28889    27727    27769 1
   28890    27727    27770 1
   28891    27728    27729 1
   28892    27728    27771 1
   28893    27728    27772 1
   28894    27729    27730 1
   28895    27729    27773 1
   28896    27729    27774 1
   28897    27730    27731 1
   28898    27730    27775 1
   28899    27730    27776 1
   28900    27731    27732 1
   28901    27731    27777 1
   28902    27731    27778 1
   28903    27732    27779 1
   28904    27732    27780 1
   28905    27732    27781 1
   28906    27733    27734 1
   28907    27733    27782 1
   28908    27733    27783 1
   28909    27734    27735 1
   28910    27735    27736 1
   28911    27735    27784 1
   28912    27735    27785 1
   28913    27736    27737 1
   28914    27736    27743 1
   28915    27736    27786 1
   28916    27737    27738 1
   28917    27737    27787 1
   28918    27737    27788 1
   28919    27738    27739 1
   28920    27738    27789 1
   28921    27738    27790 1
   28922    27739    27740 1
   28923    27739    27791 1
   28924    27739    27792 1
   28925    27740    27741 1
   28926    27740    27793 1
   28927    27740    27794 1
   28928    27741    27742 1
   28929    27741    27795 1
   28930    27741    27796 1
   28931    27742    27797 1
   28932    27742    27798 1
   28933    27742    27799 1
   28934    27743    27744 1
   28935    27743    27800 1
   28936    27743    27801 1
   28937    27744    27745 1
   28938    27744    27802 1
   28939    27744    27803 1
   28940    27745    27746 1
   28941    27745    27804 1
   28942    27745    27805 1
   28943    27746    27747 1
   28944    27746    27806 1
   28945    27746    27807 1
   28946    27747    27748 1
   28947    27747    27808 1
   28948    27747    27809 1
   28949    27748    27749 1
   28950    27748    27810 1
   28951    27748    27811 1
   28952    27749    27750 1
   28953    27749    27812 1
   28954    27749    27813 1
   28955    27750    27814 1
   28956    27750    27815 1
   28957    27750    27816 1
   28958    27817    27818 1
   28959    27817    27824 1
   28960    27817    27856 1
   28961    27818    27819 1
   28962    27818    27822 1
   28963    27819    27820 1
   28964    27819    27823 1
   28965    27820    27821 1
   28966    27821    27822 1
   28967    27821    27832 1
   28968    27822    27828 1
   28969    27823    27824 1
   28970    27823    27827 1
   28971    27824    27825 1
   28972    27825    27826 1
   28973    27825    27829 1
   28974    27826    27827 1
   28975    27830    27831 1
   28976    27830    27838 1
   28977    27831    27832 1
   28978    27831    27839 1
   28979    27832    27833 1
   28980    27833    27834 1
   28981    27833    27837 1
   28982    27834    27835 1
   28983    27835    27836 1
   28984    27836    27837 1
   28985    27837    27838 1
   28986    27838    27948 1
   28987    27840    27841 1
   28988    27840    27873 1
   28989    27840    27874 1
   28990    27840    27875 1
   28991    27841    27842 1
   28992    27841    27876 1
   28993    27841    27877 1
   28994    27842    27843 1
   28995    27842    27878 1
   28996    27842    27879 1
   28997    27843    27844 1
   28998    27843    27880 1
   28999    27843    27881 1
   29000    27844    27845 1
   29001    27844    27882 1
   29002    27844    27883 1
   29003    27845    27846 1
   29004    27845    27884 1
   29005    27845    27885 1
   29006    27846    27847 1
   29007    27846    27886 1
   29008    27846    27887 1
   29009    27847    27848 1
   29010    27847    27888 1
   29011    27847    27889 1
   29012    27848    27849 1
   29013    27848    27855 1
   29014    27848    27890 1
   29015    27849    27850 1
   29016    27849    27891 1
   29017    27849    27892 1
   29018    27850    27851 1
   29019    27850    27893 1
   29020    27850    27894 1
   29021    27851    27852 1
   29022    27851    27895 1
   29023    27851    27896 1
   29024    27852    27853 1
   29025    27852    27897 1
   29026    27852    27898 1
   29027    27853    27854 1
   29028    27853    27899 1
   29029    27853    27900 1
   29030    27854    27901 1
   29031    27854    27902 1
   29032    27854    27903 1
   29033    27855    27856 1
   29034    27855    27904 1
   29035    27855    27905 1
   29036    27856    27857 1
   29037    27857    27858 1
   29038    27857    27906 1
   29039    27857    27907 1
   29040    27858    27859 1
   29041    27858    27865 1
   29042    27858    27908 1
   29043    27859    27860 1
   29044    27859    27909 1
   29045    27859    27910 1
   29046    27860    27861 1
   29047    27860    27911 1
   29048    27860    27912 1
   29049    27861    27862 1
   29050    27861    27913 1
   29051    27861    27914 1
   29052    27862    27863 1
   29053    27862    27915 1
   29054    27862    27916 1
   29055    27863    27864 1
   29056    27863    27917 1
   29057    27863    27918 1
   29058    27864    27919 1
   29059    27864    27920 1
   29060    27864    27921 1
   29061    27865    27866 1
   29062    27865    27922 1
   29063    27865    27923 1
   29064    27866    27867 1
   29065    27866    27924 1
   29066    27866    27925 1
   29067    27867    27868 1
   29068    27867    27926 1
   29069    27867    27927 1
   29070    27868    27869 1
   29071    27868    27928 1
   29072    27868    27929 1
   29073    27869    27870 1
   29074    27869    27930 1
   29075    27869    27931 1
   29076    27870    27871 1
   29077    27870    27932 1
   29078    27870    27933 1
   29079    27871    27872 1
   29080    27871    27934 1
   29081    27871    27935 1
   29082    27872    27936 1
   29083    27872    27937 1
   29084    27872    27938 1
   29085    27939    27940 1
   29086    27939    27946 1
   29087    27939    27978 1
   29088    27940    27941 1
   29089    27940    27944 1
   29090    27941    27942 1
   29091    27941    27945 1
   29092    27942    27943 1
   29093    27943    27944 1
   29094    27943    27954 1
   29095    27944    27950 1
   29096    27945    27946 1
   29097    27945    27949 1
   29098    27946    27947 1
   29099    27947    27948 1
   29100    27947    27951 1
   29101    27948    27949 1
   29102    27952    27953 1
   29103    27952    27960 1
   29104    27953    27954 1
   29105    27953    27961 1
   29106    27954    27955 1
   29107    27955    27956 1
   29108    27955    27959 1
   29109    27956    27957 1
   29110    27957    27958 1
   29111    27958    27959 1
   29112    27959    27960 1
   29113    27960    28070 1
   29114    27962    27963 1
   29115    27962    27995 1
   29116    27962    27996 1
   29117    27962    27997 1
   29118    27963    27964 1
   29119    27963    27998 1
   29120    27963    27999 1
   29121    27964    27965 1
   29122    27964    28000 1
   29123    27964    28001 1
   29124    27965    27966 1
   29125    27965    28002 1
   29126    27965    28003 1
   29127    27966    27967 1
   29128    27966    28004 1
   29129    27966    28005 1
   29130    27967    27968 1
   29131    27967    28006 1
   29132    27967    28007 1
   29133    27968    27969 1
   29134    27968    28008 1
   29135    27968    28009 1
   29136    27969    27970 1
   29137    27969    28010 1
   29138    27969    28011 1
   29139    27970    27971 1
   29140    27970    27977 1
   29141    27970    28012 1
   29142    27971    27972 1
   29143    27971    28013 1
   29144    27971    28014 1
   29145    27972    27973 1
   29146    27972    28015 1
   29147    27972    28016 1
   29148    27973    27974 1
   29149    27973    28017 1
   29150    27973    28018 1
   29151    27974    27975 1
   29152    27974    28019 1
   29153    27974    28020 1
   29154    27975    27976 1
   29155    27975    28021 1
   29156    27975    28022 1
   29157    27976    28023 1
   29158    27976    28024 1
   29159    27976    28025 1
   29160    27977    27978 1
   29161    27977    28026 1
   29162    27977    28027 1
   29163    27978    27979 1
   29164    27979    27980 1
   29165    27979    28028 1
   29166    27979    28029 1
   29167    27980    27981 1
   29168    27980    27987 1
   29169    27980    28030 1
   29170    27981    27982 1
   29171    27981    28031 1
   29172    27981    28032 1
   29173    27982    27983 1
   29174    27982    28033 1
   29175    27982    28034 1
   29176    27983    27984 1
   29177    27983    28035 1
   29178    27983    28036 1
   29179    27984    27985 1
   29180    27984    28037 1
   29181    27984    28038 1
   29182    27985    27986 1
   29183    27985    28039 1
   29184    27985    28040 1
   29185    27986    28041 1
   29186    27986    28042 1
   29187    27986    28043 1
   29188    27987    27988 1
   29189    27987    28044 1
   29190    27987    28045 1
   29191    27988    27989 1
   29192    27988    28046 1
   29193    27988    28047 1
   29194    27989    27990 1
   29195    27989    28048 1
   29196    27989    28049 1
   29197    27990    27991 1
   29198    27990    28050 1
   29199    27990    28051 1
   29200    27991    27992 1
   29201    27991    28052 1
   29202    27991    28053 1
   29203    27992    27993 1
   29204    27992    28054 1
   29205    27992    28055 1
   29206    27993    27994 1
   29207    27993    28056 1
   29208    27993    28057 1
   29209    27994    28058 1
   29210    27994    28059 1
   29211    27994    28060 1
   29212    28061    28062 1
   29213    28061    28068 1
   29214    28061    28100 1
   29215    28062    28063 1
   29216    28062    28066 1
   29217    28063    28064 1
   29218    28063    28067 1
   29219    28064    28065 1
   29220    28065    28066 1
   29221    28065    28076 1
   29222    28066    28072 1
   29223    28067    28068 1
   29224    28067    28071 1
   29225    28068    28069 1
   29226    28069    28070 1
   29227    28069    28073 1
   29228    28070    28071 1
   29229    28074    28075 1
   29230    28074    28082 1
   29231    28075    28076 1
   29232    28075    28083 1
   29233    28076    28077 1
   29234    28077    28078 1
   29235    28077    28081 1
   29236    28078    28079 1
   29237    28079    28080 1
   29238    28080    28081 1
   29239    28081    28082 1
   29240    28082    28192 1
   29241    28084    28085 1
   29242    28084    28117 1
   29243    28084    28118 1
   29244    28084    28119 1
   29245    28085    28086 1
   29246    28085    28120 1
   29247    28085    28121 1
   29248    28086    28087 1
   29249    28086    28122 1
   29250    28086    28123 1
   29251    28087    28088 1
   29252    28087    28124 1
   29253    28087    28125 1
   29254    28088    28089 1
   29255    28088    28126 1
   29256    28088    28127 1
   29257    28089    28090 1
   29258    28089    28128 1
   29259    28089    28129 1
   29260    28090    28091 1
   29261    28090    28130 1
   29262    28090    28131 1
   29263    28091    28092 1
   29264    28091    28132 1
   29265    28091    28133 1
   29266    28092    28093 1
   29267    28092    28099 1
   29268    28092    28134 1
   29269    28093    28094 1
   29270    28093    28135 1
   29271    28093    28136 1
   29272    28094    28095 1
   29273    28094    28137 1
   29274    28094    28138 1
   29275    28095    28096 1
   29276    28095    28139 1
   29277    28095    28140 1
   29278    28096    28097 1
   29279    28096    28141 1
   29280    28096    28142 1
   29281    28097    28098 1
   29282    28097    28143 1
   29283    28097    28144 1
   29284    28098    28145 1
   29285    28098    28146 1
   29286    28098    28147 1
   29287    28099    28100 1
   29288    28099    28148 1
   29289    28099    28149 1
   29290    28100    28101 1
   29291    28101    28102 1
   29292    28101    28150 1
   29293    28101    28151 1
   29294    28102    28103 1
   29295    28102    28109 1
   29296    28102    28152 1
   29297    28103    28104 1
   29298    28103    28153 1
   29299    28103    28154 1
   29300    28104    28105 1
   29301    28104    28155 1
   29302    28104    28156 1
   29303    28105    28106 1
   29304    28105    28157 1
   29305    28105    28158 1
   29306    28106    28107 1
   29307    28106    28159 1
   29308    28106    28160 1
   29309    28107    28108 1
   29310    28107    28161 1
   29311    28107    28162 1
   29312    28108    28163 1
   29313    28108    28164 1
   29314    28108    28165 1
   29315    28109    28110 1
   29316    28109    28166 1
   29317    28109    28167 1
   29318    28110    28111 1
   29319    28110    28168 1
   29320    28110    28169 1
   29321    28111    28112 1
   29322    28111    28170 1
   29323    28111    28171 1
   29324    28112    28113 1
   29325    28112    28172 1
   29326    28112    28173 1
   29327    28113    28114 1
   29328    28113    28174 1
   29329    28113    28175 1
   29330    28114    28115 1
   29331    28114    28176 1
   29332    28114    28177 1
   29333    28115    28116 1
   29334    28115    28178 1
   29335    28115    28179 1
   29336    28116    28180 1
   29337    28116    28181 1
   29338    28116    28182 1
   29339    28183    28184 1
   29340    28183    28190 1
   29341    28183    28222 1
   29342    28184    28185 1
   29343    28184    28188 1
   29344    28185    28186 1
   29345    28185    28189 1
   29346    28186    28187 1
   29347    28187    28188 1
   29348    28187    28198 1
   29349    28188    28194 1
   29350    28189    28190 1
   29351    28189    28193 1
   29352    28190    28191 1
   29353    28191    28192 1
   29354    28191    28195 1
   29355    28192    28193 1
   29356    28196    28197 1
   29357    28196    28204 1
   29358    28197    28198 1
   29359    28197    28205 1
   29360    28198    28199 1
   29361    28199    28200 1
   29362    28199    28203 1
   29363    28200    28201 1
   29364    28201    28202 1
   29365    28202    28203 1
   29366    28203    28204 1
   29367    28204    28314 1
   29368    28206    28207 1
   29369    28206    28239 1
   29370    28206    28240 1
   29371    28206    28241 1
   29372    28207    28208 1
   29373    28207    28242 1
   29374    28207    28243 1
   29375    28208    28209 1
   29376    28208    28244 1
   29377    28208    28245 1
   29378    28209    28210 1
   29379    28209    28246 1
   29380    28209    28247 1
   29381    28210    28211 1
   29382    28210    28248 1
   29383    28210    28249 1
   29384    28211    28212 1
   29385    28211    28250 1
   29386    28211    28251 1
   29387    28212    28213 1
   29388    28212    28252 1
   29389    28212    28253 1
   29390    28213    28214 1
   29391    28213    28254 1
   29392    28213    28255 1
   29393    28214    28215 1
   29394    28214    28221 1
   29395    28214    28256 1
   29396    28215    28216 1
   29397    28215    28257 1
   29398    28215    28258 1
   29399    28216    28217 1
   29400    28216    28259 1
   29401    28216    28260 1
   29402    28217    28218 1
   29403    28217    28261 1
   29404    28217    28262 1
   29405    28218    28219 1
   29406    28218    28263 1
   29407    28218    28264 1
   29408    28219    28220 1
   29409    28219    28265 1
   29410    28219    28266 1
   29411    28220    28267 1
   29412    28220    28268 1
   29413    28220    28269 1
   29414    28221    28222 1
   29415    28221    28270 1
   29416    28221    28271 1
   29417    28222    28223 1
   29418    28223    28224 1
   29419    28223    28272 1
   29420    28223    28273 1
   29421    28224    28225 1
   29422    28224    28231 1
   29423    28224    28274 1
   29424    28225    28226 1
   29425    28225    28275 1
   29426    28225    28276 1
   29427    28226    28227 1
   29428    28226    28277 1
   29429    28226    28278 1
   29430    28227    28228 1
   29431    28227    28279 1
   29432    28227    28280 1
   29433    28228    28229 1
   29434    28228    28281 1
   29435    28228    28282 1
   29436    28229    28230 1
   29437    28229    28283 1
   29438    28229    28284 1
   29439    28230    28285 1
   29440    28230    28286 1
   29441    28230    28287 1
   29442    28231    28232 1
   29443    28231    28288 1
   29444    28231    28289 1
   29445    28232    28233 1
   29446    28232    28290 1
   29447    28232    28291 1
   29448    28233    28234 1
   29449    28233    28292 1
   29450    28233    28293 1
   29451    28234    28235 1
   29452    28234    28294 1
   29453    28234    28295 1
   29454    28235    28236 1
   29455    28235    28296 1
   29456    28235    28297 1
   29457    28236    28237 1
   29458    28236    28298 1
   29459    28236    28299 1
   29460    28237    28238 1
   29461    28237    28300 1
   29462    28237    28301 1
   29463    28238    28302 1
   29464    28238    28303 1
   29465    28238    28304 1
   29466    28305    28306 1
   29467    28305    28312 1
   29468    28305    28344 1
   29469    28306    28307 1
   29470    28306    28310 1
   29471    28307    28308 1
   29472    28307    28311 1
   29473    28308    28309 1
   29474    28309    28310 1
   29475    28309    28320 1
   29476    28310    28316 1
   29477    28311    28312 1
   29478    28311    28315 1
   29479    28312    28313 1
   29480    28313    28314 1
   29481    28313    28317 1
   29482    28314    28315 1
   29483    28318    28319 1
   29484    28318    28326 1
   29485    28319    28320 1
   29486    28319    28327 1
   29487    28320    28321 1
   29488    28321    28322 1
   29489    28321    28325 1
   29490    28322    28323 1
   29491    28323    28324 1
   29492    28324    28325 1
   29493    28325    28326 1
   29494    28326    28436 1
   29495    28328    28329 1
   29496    28328    28361 1
   29497    28328    28362 1
   29498    28328    28363 1
   29499    28329    28330 1
   29500    28329    28364 1
   29501    28329    28365 1
   29502    28330    28331 1
   29503    28330    28366 1
   29504    28330    28367 1
   29505    28331    28332 1
   29506    28331    28368 1
   29507    28331    28369 1
   29508    28332    28333 1
   29509    28332    28370 1
   29510    28332    28371 1
   29511    28333    28334 1
   29512    28333    28372 1
   29513    28333    28373 1
   29514    28334    28335 1
   29515    28334    28374 1
   29516    28334    28375 1
   29517    28335    28336 1
   29518    28335    28376 1
   29519    28335    28377 1
   29520    28336    28337 1
   29521    28336    28343 1
   29522    28336    28378 1
   29523    28337    28338 1
   29524    28337    28379 1
   29525    28337    28380 1
   29526    28338    28339 1
   29527    28338    28381 1
   29528    28338    28382 1
   29529    28339    28340 1
   29530    28339    28383 1
   29531    28339    28384 1
   29532    28340    28341 1
   29533    28340    28385 1
   29534    28340    28386 1
   29535    28341    28342 1
   29536    28341    28387 1
   29537    28341    28388 1
   29538    28342    28389 1
   29539    28342    28390 1
   29540    28342    28391 1
   29541    28343    28344 1
   29542    28343    28392 1
   29543    28343    28393 1
   29544    28344    28345 1
   29545    28345    28346 1
   29546    28345    28394 1
   29547    28345    28395 1
   29548    28346    28347 1
   29549    28346    28353 1
   29550    28346    28396 1
   29551    28347    28348 1
   29552    28347    28397 1
   29553    28347    28398 1
   29554    28348    28349 1
   29555    28348    28399 1
   29556    28348    28400 1
   29557    28349    28350 1
   29558    28349    28401 1
   29559    28349    28402 1
   29560    28350    28351 1
   29561    28350    28403 1
   29562    28350    28404 1
   29563    28351    28352 1
   29564    28351    28405 1
   29565    28351    28406 1
   29566    28352    28407 1
   29567    28352    28408 1
   29568    28352    28409 1
   29569    28353    28354 1
   29570    28353    28410 1
   29571    28353    28411 1
   29572    28354    28355 1
   29573    28354    28412 1
   29574    28354    28413 1
   29575    28355    28356 1
   29576    28355    28414 1
   29577    28355    28415 1
   29578    28356    28357 1
   29579    28356    28416 1
   29580    28356    28417 1
   29581    28357    28358 1
   29582    28357    28418 1
   29583    28357    28419 1
   29584    28358    28359 1
   29585    28358    28420 1
   29586    28358    28421 1
   29587    28359    28360 1
   29588    28359    28422 1
   29589    28359    28423 1
   29590    28360    28424 1
   29591    28360    28425 1
   29592    28360    28426 1
   29593    28427    28428 1
   29594    28427    28434 1
   29595    28427    28466 1
   29596    28428    28429 1
   29597    28428    28432 1
   29598    28429    28430 1
   29599    28429    28433 1
   29600    28430    28431 1
   29601    28431    28432 1
   29602    28431    28442 1
   29603    28432    28438 1
   29604    28433    28434 1
   29605    28433    28437 1
   29606    28434    28435 1
   29607    28435    28436 1
   29608    28435    28439 1
   29609    28436    28437 1
   29610    28440    28441 1
   29611    28440    28448 1
   29612    28441    28442 1
   29613    28441    28449 1
   29614    28442    28443 1
   29615    28443    28444 1
   29616    28443    28447 1
   29617    28444    28445 1
   29618    28445    28446 1
   29619    28446    28447 1
   29620    28447    28448 1
   29621    28448    28558 1
   29622    28450    28451 1
   29623    28450    28483 1
   29624    28450    28484 1
   29625    28450    28485 1
   29626    28451    28452 1
   29627    28451    28486 1
   29628    28451    28487 1
   29629    28452    28453 1
   29630    28452    28488 1
   29631    28452    28489 1
   29632    28453    28454 1
   29633    28453    28490 1
   29634    28453    28491 1
   29635    28454    28455 1
   29636    28454    28492 1
   29637    28454    28493 1
   29638    28455    28456 1
   29639    28455    28494 1
   29640    28455    28495 1
   29641    28456    28457 1
   29642    28456    28496 1
   29643    28456    28497 1
   29644    28457    28458 1
   29645    28457    28498 1
   29646    28457    28499 1
   29647    28458    28459 1
   29648    28458    28465 1
   29649    28458    28500 1
   29650    28459    28460 1
   29651    28459    28501 1
   29652    28459    28502 1
   29653    28460    28461 1
   29654    28460    28503 1
   29655    28460    28504 1
   29656    28461    28462 1
   29657    28461    28505 1
   29658    28461    28506 1
   29659    28462    28463 1
   29660    28462    28507 1
   29661    28462    28508 1
   29662    28463    28464 1
   29663    28463    28509 1
   29664    28463    28510 1
   29665    28464    28511 1
   29666    28464    28512 1
   29667    28464    28513 1
   29668    28465    28466 1
   29669    28465    28514 1
   29670    28465    28515 1
   29671    28466    28467 1
   29672    28467    28468 1
   29673    28467    28516 1
   29674    28467    28517 1
   29675    28468    28469 1
   29676    28468    28475 1
   29677    28468    28518 1
   29678    28469    28470 1
   29679    28469    28519 1
   29680    28469    28520 1
   29681    28470    28471 1
   29682    28470    28521 1
   29683    28470    28522 1
   29684    28471    28472 1
   29685    28471    28523 1
   29686    28471    28524 1
   29687    28472    28473 1
   29688    28472    28525 1
   29689    28472    28526 1
   29690    28473    28474 1
   29691    28473    28527 1
   29692    28473    28528 1
   29693    28474    28529 1
   29694    28474    28530 1
   29695    28474    28531 1
   29696    28475    28476 1
   29697    28475    28532 1
   29698    28475    28533 1
   29699    28476    28477 1
   29700    28476    28534 1
   29701    28476    28535 1
   29702    28477    28478 1
   29703    28477    28536 1
   29704    28477    28537 1
   29705    28478    28479 1
   29706    28478    28538 1
   29707    28478    28539 1
   29708    28479    28480 1
   29709    28479    28540 1
   29710    28479    28541 1
   29711    28480    28481 1
   29712    28480    28542 1
   29713    28480    28543 1
   29714    28481    28482 1
   29715    28481    28544 1
   29716    28481    28545 1
   29717    28482    28546 1
   29718    28482    28547 1
   29719    28482    28548 1
   29720    28549    28550 1
   29721    28549    28556 1
   29722    28549    28588 1
   29723    28550    28551 1
   29724    28550    28554 1
   29725    28551    28552 1
   29726    28551    28555 1
   29727    28552    28553 1
   29728    28553    28554 1
   29729    28553    28564 1
   29730    28554    28560 1
   29731    28555    28556 1
   29732    28555    28559 1
   29733    28556    28557 1
   29734    28557    28558 1
   29735    28557    28561 1
   29736    28558    28559 1
   29737    28562    28563 1
   29738    28562    28570 1
   29739    28563    28564 1
   29740    28563    28571 1
   29741    28564    28565 1
   29742    28565    28566 1
   29743    28565    28569 1
   29744    28566    28567 1
   29745    28567    28568 1
   29746    28568    28569 1
   29747    28569    28570 1
   29748    28570    28680 1
   29749    28572    28573 1
   29750    28572    28605 1
   29751    28572    28606 1
   29752    28572    28607 1
   29753    28573    28574 1
   29754    28573    28608 1
   29755    28573    28609 1
   29756    28574    28575 1
   29757    28574    28610 1
   29758    28574    28611 1
   29759    28575    28576 1
   29760    28575    28612 1
   29761    28575    28613 1
   29762    28576    28577 1
   29763    28576    28614 1
   29764    28576    28615 1
   29765    28577    28578 1
   29766    28577    28616 1
   29767    28577    28617 1
   29768    28578    28579 1
   29769    28578    28618 1
   29770    28578    28619 1
   29771    28579    28580 1
   29772    28579    28620 1
   29773    28579    28621 1
   29774    28580    28581 1
   29775    28580    28587 1
   29776    28580    28622 1
   29777    28581    28582 1
   29778    28581    28623 1
   29779    28581    28624 1
   29780    28582    28583 1
   29781    28582    28625 1
   29782    28582    28626 1
   29783    28583    28584 1
   29784    28583    28627 1
   29785    28583    28628 1
   29786    28584    28585 1
   29787    28584    28629 1
   29788    28584    28630 1
   29789    28585    28586 1
   29790    28585    28631 1
   29791    28585    28632 1
   29792    28586    28633 1
   29793    28586    28634 1
   29794    28586    28635 1
   29795    28587    28588 1
   29796    28587    28636 1
   29797    28587    28637 1
   29798    28588    28589 1
   29799    28589    28590 1
   29800    28589    28638 1
   29801    28589    28639 1
   29802    28590    28591 1
   29803    28590    28597 1
   29804    28590    28640 1
   29805    28591    28592 1
   29806    28591    28641 1
   29807    28591    28642 1
   29808    28592    28593 1
   29809    28592    28643 1
   29810    28592    28644 1
   29811    28593    28594 1
   29812    28593    28645 1
   29813    28593    28646 1
   29814    28594    28595 1
   29815    28594    28647 1
   29816    28594    28648 1
   29817    28595    28596 1
   29818    28595    28649 1
   29819    28595    28650 1
   29820    28596    28651 1
   29821    28596    28652 1
   29822    28596    28653 1
   29823    28597    28598 1
   29824    28597    28654 1
   29825    28597    28655 1
   29826    28598    28599 1
   29827    28598    28656 1
   29828    28598    28657 1
   29829    28599    28600 1
   29830    28599    28658 1
   29831    28599    28659 1
   29832    28600    28601 1
   29833    28600    28660 1
   29834    28600    28661 1
   29835    28601    28602 1
   29836    28601    28662 1
   29837    28601    28663 1
   29838    28602    28603 1
   29839    28602    28664 1
   29840    28602    28665 1
   29841    28603    28604 1
   29842    28603    28666 1
   29843    28603    28667 1
   29844    28604    28668 1
   29845    28604    28669 1
   29846    28604    28670 1
   29847    28671    28672 1
   29848    28671    28678 1
   29849    28671    28710 1
   29850    28672    28673 1
   29851    28672    28676 1
   29852    28673    28674 1
   29853    28673    28677 1
   29854    28674    28675 1
   29855    28675    28676 1
   29856    28675    28686 1
   29857    28676    28682 1
   29858    28677    28678 1
   29859    28677    28681 1
   29860    28678    28679 1
   29861    28679    28680 1
   29862    28679    28683 1
   29863    28680    28681 1
   29864    28684    28685 1
   29865    28684    28692 1
   29866    28685    28686 1
   29867    28685    28693 1
   29868    28686    28687 1
   29869    28687    28688 1
   29870    28687    28691 1
   29871    28688    28689 1
   29872    28689    28690 1
   29873    28690    28691 1
   29874    28691    28692 1
   29875    28692    28802 1
   29876    28694    28695 1
   29877    28694    28727 1
   29878    28694    28728 1
   29879    28694    28729 1
   29880    28695    28696 1
   29881    28695    28730 1
   29882    28695    28731 1
   29883    28696    28697 1
   29884    28696    28732 1
   29885    28696    28733 1
   29886    28697    28698 1
   29887    28697    28734 1
   29888    28697    28735 1
   29889    28698    28699 1
   29890    28698    28736 1
   29891    28698    28737 1
   29892    28699    28700 1
   29893    28699    28738 1
   29894    28699    28739 1
   29895    28700    28701 1
   29896    28700    28740 1
   29897    28700    28741 1
   29898    28701    28702 1
   29899    28701    28742 1
   29900    28701    28743 1
   29901    28702    28703 1
   29902    28702    28709 1
   29903    28702    28744 1
   29904    28703    28704 1
   29905    28703    28745 1
   29906    28703    28746 1
   29907    28704    28705 1
   29908    28704    28747 1
   29909    28704    28748 1
   29910    28705    28706 1
   29911    28705    28749 1
   29912    28705    28750 1
   29913    28706    28707 1
   29914    28706    28751 1
   29915    28706    28752 1
   29916    28707    28708 1
   29917    28707    28753 1
   29918    28707    28754 1
   29919    28708    28755 1
   29920    28708    28756 1
   29921    28708    28757 1
   29922    28709    28710 1
   29923    28709    28758 1
   29924    28709    28759 1
   29925    28710    28711 1
   29926    28711    28712 1
   29927    28711    28760 1
   29928    28711    28761 1
   29929    28712    28713 1
   29930    28712    28719 1
   29931    28712    28762 1
   29932    28713    28714 1
   29933    28713    28763 1
   29934    28713    28764 1
   29935    28714    28715 1
   29936    28714    28765 1
   29937    28714    28766 1
   29938    28715    28716 1
   29939    28715    28767 1
   29940    28715    28768 1
   29941    28716    28717 1
   29942    28716    28769 1
   29943    28716    28770 1
   29944    28717    28718 1
   29945    28717    28771 1
   29946    28717    28772 1
   29947    28718    28773 1
   29948    28718    28774 1
   29949    28718    28775 1
   29950    28719    28720 1
   29951    28719    28776 1
   29952    28719    28777 1
   29953    28720    28721 1
   29954    28720    28778 1
   29955    28720    28779 1
   29956    28721    28722 1
   29957    28721    28780 1
   29958    28721    28781 1
   29959    28722    28723 1
   29960    28722    28782 1
   29961    28722    28783 1
   29962    28723    28724 1
   29963    28723    28784 1
   29964    28723    28785 1
   29965    28724    28725 1
   29966    28724    28786 1
   29967    28724    28787 1
   29968    28725    28726 1
   29969    28725    28788 1
   29970    28725    28789 1
   29971    28726    28790 1
   29972    28726    28791 1
   29973    28726    28792 1
   29974    28793    28794 1
   29975    28793    28800 1
   29976    28793    28832 1
   29977    28794    28795 1
   29978    28794    28798 1
   29979    28795    28796 1
   29980    28795    28799 1
   29981    28796    28797 1
   29982    28797    28798 1
   29983    28797    28808 1
   29984    28798    28804 1
   29985    28799    28800 1
   29986    28799    28803 1
   29987    28800    28801 1
   29988    28801    28802 1
   29989    28801    28805 1
   29990    28802    28803 1
   29991    28806    28807 1
   29992    28806    28814 1
   29993    28807    28808 1
   29994    28807    28815 1
   29995    28808    28809 1
   29996    28809    28810 1
   29997    28809    28813 1
   29998    28810    28811 1
   29999    28811    28812 1
   30000    28812    28813 1
   30001    28813    28814 1
   30002    28814    28924 1
   30003    28816    28817 1
   30004    28816    28849 1
   30005    28816    28850 1
   30006    28816    28851 1
   30007    28817    28818 1
   30008    28817    28852 1
   30009    28817    28853 1
   30010    28818    28819 1
   30011    28818    28854 1
   30012    28818    28855 1
   30013    28819    28820 1
   30014    28819    28856 1
   30015    28819    28857 1
   30016    28820    28821 1
   30017    28820    28858 1
   30018    28820    28859 1
   30019    28821    28822 1
   30020    28821    28860 1
   30021    28821    28861 1
   30022    28822    28823 1
   30023    28822    28862 1
   30024    28822    28863 1
   30025    28823    28824 1
   30026    28823    28864 1
   30027    28823    28865 1
   30028    28824    28825 1
   30029    28824    28831 1
   30030    28824    28866 1
   30031    28825    28826 1
   30032    28825    28867 1
   30033    28825    28868 1
   30034    28826    28827 1
   30035    28826    28869 1
   30036    28826    28870 1
   30037    28827    28828 1
   30038    28827    28871 1
   30039    28827    28872 1
   30040    28828    28829 1
   30041    28828    28873 1
   30042    28828    28874 1
   30043    28829    28830 1
   30044    28829    28875 1
   30045    28829    28876 1
   30046    28830    28877 1
   30047    28830    28878 1
   30048    28830    28879 1
   30049    28831    28832 1
   30050    28831    28880 1
   30051    28831    28881 1
   30052    28832    28833 1
   30053    28833    28834 1
   30054    28833    28882 1
   30055    28833    28883 1
   30056    28834    28835 1
   30057    28834    28841 1
   30058    28834    28884 1
   30059    28835    28836 1
   30060    28835    28885 1
   30061    28835    28886 1
   30062    28836    28837 1
   30063    28836    28887 1
   30064    28836    28888 1
   30065    28837    28838 1
   30066    28837    28889 1
   30067    28837    28890 1
   30068    28838    28839 1
   30069    28838    28891 1
   30070    28838    28892 1
   30071    28839    28840 1
   30072    28839    28893 1
   30073    28839    28894 1
   30074    28840    28895 1
   30075    28840    28896 1
   30076    28840    28897 1
   30077    28841    28842 1
   30078    28841    28898 1
   30079    28841    28899 1
   30080    28842    28843 1
   30081    28842    28900 1
   30082    28842    28901 1
   30083    28843    28844 1
   30084    28843    28902 1
   30085    28843    28903 1
   30086    28844    28845 1
   30087    28844    28904 1
   30088    28844    28905 1
   30089    28845    28846 1
   30090    28845    28906 1
   30091    28845    28907 1
   30092    28846    28847 1
   30093    28846    28908 1
   30094    28846    28909 1
   30095    28847    28848 1
   30096    28847    28910 1
   30097    28847    28911 1
   30098    28848    28912 1
   30099    28848    28913 1
   30100    28848    28914 1
   30101    28915    28916 1
   30102    28915    28922 1
   30103    28915    28954 1
   30104    28916    28917 1
   30105    28916    28920 1
   30106    28917    28918 1
   30107    28917    28921 1
   30108    28918    28919 1
   30109    28919    28920 1
   30110    28919    28930 1
   30111    28920    28926 1
   30112    28921    28922 1
   30113    28921    28925 1
   30114    28922    28923 1
   30115    28923    28924 1
   30116    28923    28927 1
   30117    28924    28925 1
   30118    28928    28929 1
   30119    28928    28936 1
   30120    28929    28930 1
   30121    28929    28937 1
   30122    28930    28931 1
   30123    28931    28932 1
   30124    28931    28935 1
   30125    28932    28933 1
   30126    28933    28934 1
   30127    28934    28935 1
   30128    28935    28936 1
   30129    28936    29046 1
   30130    28938    28939 1
   30131    28938    28971 1
   30132    28938    28972 1
   30133    28938    28973 1
   30134    28939    28940 1
   30135    28939    28974 1
   30136    28939    28975 1
   30137    28940    28941 1
   30138    28940    28976 1
   30139    28940    28977 1
   30140    28941    28942 1
   30141    28941    28978 1
   30142    28941    28979 1
   30143    28942    28943 1
   30144    28942    28980 1
   30145    28942    28981 1
   30146    28943    28944 1
   30147    28943    28982 1
   30148    28943    28983 1
   30149    28944    28945 1
   30150    28944    28984 1
   30151    28944    28985 1
   30152    28945    28946 1
   30153    28945    28986 1
   30154    28945    28987 1
   30155    28946    28947 1
   30156    28946    28953 1
   30157    28946    28988 1
   30158    28947    28948 1
   30159    28947    28989 1
   30160    28947    28990 1
   30161    28948    28949 1
   30162    28948    28991 1
   30163    28948    28992 1
   30164    28949    28950 1
   30165    28949    28993 1
   30166    28949    28994 1
   30167    28950    28951 1
   30168    28950    28995 1
   30169    28950    28996 1
   30170    28951    28952 1
   30171    28951    28997 1
   30172    28951    28998 1
   30173    28952    28999 1
   30174    28952    29000 1
   30175    28952    29001 1
   30176    28953    28954 1
   30177    28953    29002 1
   30178    28953    29003 1
   30179    28954    28955 1
   30180    28955    28956 1
   30181    28955    29004 1
   30182    28955    29005 1
   30183    28956    28957 1
   30184    28956    28963 1
   30185    28956    29006 1
   30186    28957    28958 1
   30187    28957    29007 1
   30188    28957    29008 1
   30189    28958    28959 1
   30190    28958    29009 1
   30191    28958    29010 1
   30192    28959    28960 1
   30193    28959    29011 1
   30194    28959    29012 1
   30195    28960    28961 1
   30196    28960    29013 1
   30197    28960    29014 1
   30198    28961    28962 1
   30199    28961    29015 1
   30200    28961    29016 1
   30201    28962    29017 1
   30202    28962    29018 1
   30203    28962    29019 1
   30204    28963    28964 1
   30205    28963    29020 1
   30206    28963    29021 1
   30207    28964    28965 1
   30208    28964    29022 1
   30209    28964    29023 1
   30210    28965    28966 1
   30211    28965    29024 1
   30212    28965    29025 1
   30213    28966    28967 1
   30214    28966    29026 1
   30215    28966    29027 1
   30216    28967    28968 1
   30217    28967    29028 1
   30218    28967    29029 1
   30219    28968    28969 1
   30220    28968    29030 1
   30221    28968    29031 1
   30222    28969    28970 1
   30223    28969    29032 1
   30224    28969    29033 1
   30225    28970    29034 1
   30226    28970    29035 1
   30227    28970    29036 1
   30228    29037    29038 1
   30229    29037    29044 1
   30230    29037    29076 1
   30231    29038    29039 1
   30232    29038    29042 1
   30233    29039    29040 1
   30234    29039    29043 1
   30235    29040    29041 1
   30236    29041    29042 1
   30237    29041    29052 1
   30238    29042    29048 1
   30239    29043    29044 1
   30240    29043    29047 1
   30241    29044    29045 1
   30242    29045    29046 1
   30243    29045    29049 1
   30244    29046    29047 1
   30245    29050    29051 1
   30246    29050    29058 1
   30247    29051    29052 1
   30248    29051    29059 1
   30249    29052    29053 1
   30250    29053    29054 1
   30251    29053    29057 1
   30252    29054    29055 1
   30253    29055    29056 1
   30254    29056    29057 1
   30255    29057    29058 1
   30256    29058    29168 1
   30257    29060    29061 1
   30258    29060    29093 1
   30259    29060    29094 1
   30260    29060    29095 1
   30261    29061    29062 1
   30262    29061    29096 1
   30263    29061    29097 1
   30264    29062    29063 1
   30265    29062    29098 1
   30266    29062    29099 1
   30267    29063    29064 1
   30268    29063    29100 1
   30269    29063    29101 1
   30270    29064    29065 1
   30271    29064    29102 1
   30272    29064    29103 1
   30273    29065    29066 1
   30274    29065    29104 1
   30275    29065    29105 1
   30276    29066    29067 1
   30277    29066    29106 1
   30278    29066    29107 1
   30279    29067    29068 1
   30280    29067    29108 1
   30281    29067    29109 1
   30282    29068    29069 1
   30283    29068    29075 1
   30284    29068    29110 1
   30285    29069    29070 1
   30286    29069    29111 1
   30287    29069    29112 1
   30288    29070    29071 1
   30289    29070    29113 1
   30290    29070    29114 1
   30291    29071    29072 1
   30292    29071    29115 1
   30293    29071    29116 1
   30294    29072    29073 1
   30295    29072    29117 1
   30296    29072    29118 1
   30297    29073    29074 1
   30298    29073    29119 1
   30299    29073    29120 1
   30300    29074    29121 1
   30301    29074    29122 1
   30302    29074    29123 1
   30303    29075    29076 1
   30304    29075    29124 1
   30305    29075    29125 1
   30306    29076    29077 1
   30307    29077    29078 1
   30308    29077    29126 1
   30309    29077    29127 1
   30310    29078    29079 1
   30311    29078    29085 1
   30312    29078    29128 1
   30313    29079    29080 1
   30314    29079    29129 1
   30315    29079    29130 1
   30316    29080    29081 1
   30317    29080    29131 1
   30318    29080    29132 1
   30319    29081    29082 1
   30320    29081    29133 1
   30321    29081    29134 1
   30322    29082    29083 1
   30323    29082    29135 1
   30324    29082    29136 1
   30325    29083    29084 1
   30326    29083    29137 1
   30327    29083    29138 1
   30328    29084    29139 1
   30329    29084    29140 1
   30330    29084    29141 1
   30331    29085    29086 1
   30332    29085    29142 1
   30333    29085    29143 1
   30334    29086    29087 1
   30335    29086    29144 1
   30336    29086    29145 1
   30337    29087    29088 1
   30338    29087    29146 1
   30339    29087    29147 1
   30340    29088    29089 1
   30341    29088    29148 1
   30342    29088    29149 1
   30343    29089    29090 1
   30344    29089    29150 1
   30345    29089    29151 1
   30346    29090    29091 1
   30347    29090    29152 1
   30348    29090    29153 1
   30349    29091    29092 1
   30350    29091    29154 1
   30351    29091    29155 1
   30352    29092    29156 1
   30353    29092    29157 1
   30354    29092    29158 1
   30355    29159    29160 1
   30356    29159    29166 1
   30357    29159    29198 1
   30358    29160    29161 1
   30359    29160    29164 1
   30360    29161    29162 1
   30361    29161    29165 1
   30362    29162    29163 1
   30363    29163    29164 1
   30364    29163    29174 1
   30365    29164    29170 1
   30366    29165    29166 1
   30367    29165    29169 1
   30368    29166    29167 1
   30369    29167    29168 1
   30370    29167    29171 1
   30371    29168    29169 1
   30372    29172    29173 1
   30373    29172    29180 1
   30374    29173    29174 1
   30375    29173    29181 1
   30376    29174    29175 1
   30377    29175    29176 1
   30378    29175    29179 1
   30379    29176    29177 1
   30380    29177    29178 1
   30381    29178    29179 1
   30382    29179    29180 1
   30383    29180    29290 1
   30384    29182    29183 1
   30385    29182    29215 1
   30386    29182    29216 1
   30387    29182    29217 1
   30388    29183    29184 1
   30389    29183    29218 1
   30390    29183    29219 1
   30391    29184    29185 1
   30392    29184    29220 1
   30393    29184    29221 1
   30394    29185    29186 1
   30395    29185    29222 1
   30396    29185    29223 1
   30397    29186    29187 1
   30398    29186    29224 1
   30399    29186    29225 1
   30400    29187    29188 1
   30401    29187    29226 1
   30402    29187    29227 1
   30403    29188    29189 1
   30404    29188    29228 1
   30405    29188    29229 1
   30406    29189    29190 1
   30407    29189    29230 1
   30408    29189    29231 1
   30409    29190    29191 1
   30410    29190    29197 1
   30411    29190    29232 1
   30412    29191    29192 1
   30413    29191    29233 1
   30414    29191    29234 1
   30415    29192    29193 1
   30416    29192    29235 1
   30417    29192    29236 1
   30418    29193    29194 1
   30419    29193    29237 1
   30420    29193    29238 1
   30421    29194    29195 1
   30422    29194    29239 1
   30423    29194    29240 1
   30424    29195    29196 1
   30425    29195    29241 1
   30426    29195    29242 1
   30427    29196    29243 1
   30428    29196    29244 1
   30429    29196    29245 1
   30430    29197    29198 1
   30431    29197    29246 1
   30432    29197    29247 1
   30433    29198    29199 1
   30434    29199    29200 1
   30435    29199    29248 1
   30436    29199    29249 1
   30437    29200    29201 1
   30438    29200    29207 1
   30439    29200    29250 1
   30440    29201    29202 1
   30441    29201    29251 1
   30442    29201    29252 1
   30443    29202    29203 1
   30444    29202    29253 1
   30445    29202    29254 1
   30446    29203    29204 1
   30447    29203    29255 1
   30448    29203    29256 1
   30449    29204    29205 1
   30450    29204    29257 1
   30451    29204    29258 1
   30452    29205    29206 1
   30453    29205    29259 1
   30454    29205    29260 1
   30455    29206    29261 1
   30456    29206    29262 1
   30457    29206    29263 1
   30458    29207    29208 1
   30459    29207    29264 1
   30460    29207    29265 1
   30461    29208    29209 1
   30462    29208    29266 1
   30463    29208    29267 1
   30464    29209    29210 1
   30465    29209    29268 1
   30466    29209    29269 1
   30467    29210    29211 1
   30468    29210    29270 1
   30469    29210    29271 1
   30470    29211    29212 1
   30471    29211    29272 1
   30472    29211    29273 1
   30473    29212    29213 1
   30474    29212    29274 1
   30475    29212    29275 1
   30476    29213    29214 1
   30477    29213    29276 1
   30478    29213    29277 1
   30479    29214    29278 1
   30480    29214    29279 1
   30481    29214    29280 1
   30482    29281    29282 1
   30483    29281    29288 1
   30484    29281    29320 1
   30485    29282    29283 1
   30486    29282    29286 1
   30487    29283    29284 1
   30488    29283    29287 1
   30489    29284    29285 1
   30490    29285    29286 1
   30491    29285    29296 1
   30492    29286    29292 1
   30493    29287    29288 1
   30494    29287    29291 1
   30495    29288    29289 1
   30496    29289    29290 1
   30497    29289    29293 1
   30498    29290    29291 1
   30499    29294    29295 1
   30500    29294    29302 1
   30501    29295    29296 1
   30502    29295    29303 1
   30503    29296    29297 1
   30504    29297    29298 1
   30505    29297    29301 1
   30506    29298    29299 1
   30507    29299    29300 1
   30508    29300    29301 1
   30509    29301    29302 1
   30510    29302    29412 1
   30511    29304    29305 1
   30512    29304    29337 1
   30513    29304    29338 1
   30514    29304    29339 1
   30515    29305    29306 1
   30516    29305    29340 1
   30517    29305    29341 1
   30518    29306    29307 1
   30519    29306    29342 1
   30520    29306    29343 1
   30521    29307    29308 1
   30522    29307    29344 1
   30523    29307    29345 1
   30524    29308    29309 1
   30525    29308    29346 1
   30526    29308    29347 1
   30527    29309    29310 1
   30528    29309    29348 1
   30529    29309    29349 1
   30530    29310    29311 1
   30531    29310    29350 1
   30532    29310    29351 1
   30533    29311    29312 1
   30534    29311    29352 1
   30535    29311    29353 1
   30536    29312    29313 1
   30537    29312    29319 1
   30538    29312    29354 1
   30539    29313    29314 1
   30540    29313    29355 1
   30541    29313    29356 1
   30542    29314    29315 1
   30543    29314    29357 1
   30544    29314    29358 1
   30545    29315    29316 1
   30546    29315    29359 1
   30547    29315    29360 1
   30548    29316    29317 1
   30549    29316    29361 1
   30550    29316    29362 1
   30551    29317    29318 1
   30552    29317    29363 1
   30553    29317    29364 1
   30554    29318    29365 1
   30555    29318    29366 1
   30556    29318    29367 1
   30557    29319    29320 1
   30558    29319    29368 1
   30559    29319    29369 1
   30560    29320    29321 1
   30561    29321    29322 1
   30562    29321    29370 1
   30563    29321    29371 1
   30564    29322    29323 1
   30565    29322    29329 1
   30566    29322    29372 1
   30567    29323    29324 1
   30568    29323    29373 1
   30569    29323    29374 1
   30570    29324    29325 1
   30571    29324    29375 1
   30572    29324    29376 1
   30573    29325    29326 1
   30574    29325    29377 1
   30575    29325    29378 1
   30576    29326    29327 1
   30577    29326    29379 1
   30578    29326    29380 1
   30579    29327    29328 1
   30580    29327    29381 1
   30581    29327    29382 1
   30582    29328    29383 1
   30583    29328    29384 1
   30584    29328    29385 1
   30585    29329    29330 1
   30586    29329    29386 1
   30587    29329    29387 1
   30588    29330    29331 1
   30589    29330    29388 1
   30590    29330    29389 1
   30591    29331    29332 1
   30592    29331    29390 1
   30593    29331    29391 1
   30594    29332    29333 1
   30595    29332    29392 1
   30596    29332    29393 1
   30597    29333    29334 1
   30598    29333    29394 1
   30599    29333    29395 1
   30600    29334    29335 1
   30601    29334    29396 1
   30602    29334    29397 1
   30603    29335    29336 1
   30604    29335    29398 1
   30605    29335    29399 1
   30606    29336    29400 1
   30607    29336    29401 1
   30608    29336    29402 1
   30609    29403    29404 1
   30610    29403    29410 1
   30611    29403    29442 1
   30612    29404    29405 1
   30613    29404    29408 1
   30614    29405    29406 1
   30615    29405    29409 1
   30616    29406    29407 1
   30617    29407    29408 1
   30618    29407    29418 1
   30619    29408    29414 1
   30620    29409    29410 1
   30621    29409    29413 1
   30622    29410    29411 1
   30623    29411    29412 1
   30624    29411    29415 1
   30625    29412    29413 1
   30626    29416    29417 1
   30627    29416    29424 1
   30628    29417    29418 1
   30629    29417    29425 1
   30630    29418    29419 1
   30631    29419    29420 1
   30632    29419    29423 1
   30633    29420    29421 1
   30634    29421    29422 1
   30635    29422    29423 1
   30636    29423    29424 1
   30637    29424    29534 1
   30638    29426    29427 1
   30639    29426    29459 1
   30640    29426    29460 1
   30641    29426    29461 1
   30642    29427    29428 1
   30643    29427    29462 1
   30644    29427    29463 1
   30645    29428    29429 1
   30646    29428    29464 1
   30647    29428    29465 1
   30648    29429    29430 1
   30649    29429    29466 1
   30650    29429    29467 1
   30651    29430    29431 1
   30652    29430    29468 1
   30653    29430    29469 1
   30654    29431    29432 1
   30655    29431    29470 1
   30656    29431    29471 1
   30657    29432    29433 1
   30658    29432    29472 1
   30659    29432    29473 1
   30660    29433    29434 1
   30661    29433    29474 1
   30662    29433    29475 1
   30663    29434    29435 1
   30664    29434    29441 1
   30665    29434    29476 1
   30666    29435    29436 1
   30667    29435    29477 1
   30668    29435    29478 1
   30669    29436    29437 1
   30670    29436    29479 1
   30671    29436    29480 1
   30672    29437    29438 1
   30673    29437    29481 1
   30674    29437    29482 1
   30675    29438    29439 1
   30676    29438    29483 1
   30677    29438    29484 1
   30678    29439    29440 1
   30679    29439    29485 1
   30680    29439    29486 1
   30681    29440    29487 1
   30682    29440    29488 1
   30683    29440    29489 1
   30684    29441    29442 1
   30685    29441    29490 1
   30686    29441    29491 1
   30687    29442    29443 1
   30688    29443    29444 1
   30689    29443    29492 1
   30690    29443    29493 1
   30691    29444    29445 1
   30692    29444    29451 1
   30693    29444    29494 1
   30694    29445    29446 1
   30695    29445    29495 1
   30696    29445    29496 1
   30697    29446    29447 1
   30698    29446    29497 1
   30699    29446    29498 1
   30700    29447    29448 1
   30701    29447    29499 1
   30702    29447    29500 1
   30703    29448    29449 1
   30704    29448    29501 1
   30705    29448    29502 1
   30706    29449    29450 1
   30707    29449    29503 1
   30708    29449    29504 1
   30709    29450    29505 1
   30710    29450    29506 1
   30711    29450    29507 1
   30712    29451    29452 1
   30713    29451    29508 1
   30714    29451    29509 1
   30715    29452    29453 1
   30716    29452    29510 1
   30717    29452    29511 1
   30718    29453    29454 1
   30719    29453    29512 1
   30720    29453    29513 1
   30721    29454    29455 1
   30722    29454    29514 1
   30723    29454    29515 1
   30724    29455    29456 1
   30725    29455    29516 1
   30726    29455    29517 1
   30727    29456    29457 1
   30728    29456    29518 1
   30729    29456    29519 1
   30730    29457    29458 1
   30731    29457    29520 1
   30732    29457    29521 1
   30733    29458    29522 1
   30734    29458    29523 1
   30735    29458    29524 1
   30736    29525    29526 1
   30737    29525    29532 1
   30738    29525    29564 1
   30739    29526    29527 1
   30740    29526    29530 1
   30741    29527    29528 1
   30742    29527    29531 1
   30743    29528    29529 1
   30744    29529    29530 1
   30745    29529    29540 1
   30746    29530    29536 1
   30747    29531    29532 1
   30748    29531    29535 1
   30749    29532    29533 1
   30750    29533    29534 1
   30751    29533    29537 1
   30752    29534    29535 1
   30753    29538    29539 1
   30754    29538    29546 1
   30755    29539    29540 1
   30756    29539    29547 1
   30757    29540    29541 1
   30758    29541    29542 1
   30759    29541    29545 1
   30760    29542    29543 1
   30761    29543    29544 1
   30762    29544    29545 1
   30763    29545    29546 1
   30764    29546    29656 1
   30765    29548    29549 1
   30766    29548    29581 1
   30767    29548    29582 1
   30768    29548    29583 1
   30769    29549    29550 1
   30770    29549    29584 1
   30771    29549    29585 1
   30772    29550    29551 1
   30773    29550    29586 1
   30774    29550    29587 1
   30775    29551    29552 1
   30776    29551    29588 1
   30777    29551    29589 1
   30778    29552    29553 1
   30779    29552    29590 1
   30780    29552    29591 1
   30781    29553    29554 1
   30782    29553    29592 1
   30783    29553    29593 1
   30784    29554    29555 1
   30785    29554    29594 1
   30786    29554    29595 1
   30787    29555    29556 1
   30788    29555    29596 1
   30789    29555    29597 1
   30790    29556    29557 1
   30791    29556    29563 1
   30792    29556    29598 1
   30793    29557    29558 1
   30794    29557    29599 1
   30795    29557    29600 1
   30796    29558    29559 1
   30797    29558    29601 1
   30798    29558    29602 1
   30799    29559    29560 1
   30800    29559    29603 1
   30801    29559    29604 1
   30802    29560    29561 1
   30803    29560    29605 1
   30804    29560    29606 1
   30805    29561    29562 1
   30806    29561    29607 1
   30807    29561    29608 1
   30808    29562    29609 1
   30809    29562    29610 1
   30810    29562    29611 1
   30811    29563    29564 1
   30812    29563    29612 1
   30813    29563    29613 1
   30814    29564    29565 1
   30815    29565    29566 1
   30816    29565    29614 1
   30817    29565    29615 1
   30818    29566    29567 1
   30819    29566    29573 1
   30820    29566    29616 1
   30821    29567    29568 1
   30822    29567    29617 1
   30823    29567    29618 1
   30824    29568    29569 1
   30825    29568    29619 1
   30826    29568    29620 1
   30827    29569    29570 1
   30828    29569    29621 1
   30829    29569    29622 1
   30830    29570    29571 1
   30831    29570    29623 1
   30832    29570    29624 1
   30833    29571    29572 1
   30834    29571    29625 1
   30835    29571    29626 1
   30836    29572    29627 1
   30837    29572    29628 1
   30838    29572    29629 1
   30839    29573    29574 1
   30840    29573    29630 1
   30841    29573    29631 1
   30842    29574    29575 1
   30843    29574    29632 1
   30844    29574    29633 1
   30845    29575    29576 1
   30846    29575    29634 1
   30847    29575    29635 1
   30848    29576    29577 1
   30849    29576    29636 1
   30850    29576    29637 1
   30851    29577    29578 1
   30852    29577    29638 1
   30853    29577    29639 1
   30854    29578    29579 1
   30855    29578    29640 1
   30856    29578    29641 1
   30857    29579    29580 1
   30858    29579    29642 1
   30859    29579    29643 1
   30860    29580    29644 1
   30861    29580    29645 1
   30862    29580    29646 1
   30863    29647    29648 1
   30864    29647    29654 1
   30865    29647    29686 1
   30866    29648    29649 1
   30867    29648    29652 1
   30868    29649    29650 1
   30869    29649    29653 1
   30870    29650    29651 1
   30871    29651    29652 1
   30872    29651    29662 1
   30873    29652    29658 1
   30874    29653    29654 1
   30875    29653    29657 1
   30876    29654    29655 1
   30877    29655    29656 1
   30878    29655    29659 1
   30879    29656    29657 1
   30880    29660    29661 1
   30881    29660    29668 1
   30882    29661    29662 1
   30883    29661    29669 1
   30884    29662    29663 1
   30885    29663    29664 1
   30886    29663    29667 1
   30887    29664    29665 1
   30888    29665    29666 1
   30889    29666    29667 1
   30890    29667    29668 1
   30891    29668    29778 1
   30892    29670    29671 1
   30893    29670    29703 1
   30894    29670    29704 1
   30895    29670    29705 1
   30896    29671    29672 1
   30897    29671    29706 1
   30898    29671    29707 1
   30899    29672    29673 1
   30900    29672    29708 1
   30901    29672    29709 1
   30902    29673    29674 1
   30903    29673    29710 1
   30904    29673    29711 1
   30905    29674    29675 1
   30906    29674    29712 1
   30907    29674    29713 1
   30908    29675    29676 1
   30909    29675    29714 1
   30910    29675    29715 1
   30911    29676    29677 1
   30912    29676    29716 1
   30913    29676    29717 1
   30914    29677    29678 1
   30915    29677    29718 1
   30916    29677    29719 1
   30917    29678    29679 1
   30918    29678    29685 1
   30919    29678    29720 1
   30920    29679    29680 1
   30921    29679    29721 1
   30922    29679    29722 1
   30923    29680    29681 1
   30924    29680    29723 1
   30925    29680    29724 1
   30926    29681    29682 1
   30927    29681    29725 1
   30928    29681    29726 1
   30929    29682    29683 1
   30930    29682    29727 1
   30931    29682    29728 1
   30932    29683    29684 1
   30933    29683    29729 1
   30934    29683    29730 1
   30935    29684    29731 1
   30936    29684    29732 1
   30937    29684    29733 1
   30938    29685    29686 1
   30939    29685    29734 1
   30940    29685    29735 1
   30941    29686    29687 1
   30942    29687    29688 1
   30943    29687    29736 1
   30944    29687    29737 1
   30945    29688    29689 1
   30946    29688    29695 1
   30947    29688    29738 1
   30948    29689    29690 1
   30949    29689    29739 1
   30950    29689    29740 1
   30951    29690    29691 1
   30952    29690    29741 1
   30953    29690    29742 1
   30954    29691    29692 1
   30955    29691    29743 1
   30956    29691    29744 1
   30957    29692    29693 1
   30958    29692    29745 1
   30959    29692    29746 1
   30960    29693    29694 1
   30961    29693    29747 1
   30962    29693    29748 1
   30963    29694    29749 1
   30964    29694    29750 1
   30965    29694    29751 1
   30966    29695    29696 1
   30967    29695    29752 1
   30968    29695    29753 1
   30969    29696    29697 1
   30970    29696    29754 1
   30971    29696    29755 1
   30972    29697    29698 1
   30973    29697    29756 1
   30974    29697    29757 1
   30975    29698    29699 1
   30976    29698    29758 1
   30977    29698    29759 1
   30978    29699    29700 1
   30979    29699    29760 1
   30980    29699    29761 1
   30981    29700    29701 1
   30982    29700    29762 1
   30983    29700    29763 1
   30984    29701    29702 1
   30985    29701    29764 1
   30986    29701    29765 1
   30987    29702    29766 1
   30988    29702    29767 1
   30989    29702    29768 1
   30990    29769    29770 1
   30991    29769    29776 1
   30992    29769    29808 1
   30993    29770    29771 1
   30994    29770    29774 1
   30995    29771    29772 1
   30996    29771    29775 1
   30997    29772    29773 1
   30998    29773    29774 1
   30999    29773    29784 1
   31000    29774    29780 1
   31001    29775    29776 1
   31002    29775    29779 1
   31003    29776    29777 1
   31004    29777    29778 1
   31005    29777    29781 1
   31006    29778    29779 1
   31007    29782    29783 1
   31008    29782    29790 1
   31009    29783    29784 1
   31010    29783    29791 1
   31011    29784    29785 1
   31012    29785    29786 1
   31013    29785    29789 1
   31014    29786    29787 1
   31015    29787    29788 1
   31016    29788    29789 1
   31017    29789    29790 1
   31018    29790    29900 1
   31019    29792    29793 1
   31020    29792    29825 1
   31021    29792    29826 1
   31022    29792    29827 1
   31023    29793    29794 1
   31024    29793    29828 1
   31025    29793    29829 1
   31026    29794    29795 1
   31027    29794    29830 1
   31028    29794    29831 1
   31029    29795    29796 1
   31030    29795    29832 1
   31031    29795    29833 1
   31032    29796    29797 1
   31033    29796    29834 1
   31034    29796    29835 1
   31035    29797    29798 1
   31036    29797    29836 1
   31037    29797    29837 1
   31038    29798    29799 1
   31039    29798    29838 1
   31040    29798    29839 1
   31041    29799    29800 1
   31042    29799    29840 1
   31043    29799    29841 1
   31044    29800    29801 1
   31045    29800    29807 1
   31046    29800    29842 1
   31047    29801    29802 1
   31048    29801    29843 1
   31049    29801    29844 1
   31050    29802    29803 1
   31051    29802    29845 1
   31052    29802    29846 1
   31053    29803    29804 1
   31054    29803    29847 1
   31055    29803    29848 1
   31056    29804    29805 1
   31057    29804    29849 1
   31058    29804    29850 1
   31059    29805    29806 1
   31060    29805    29851 1
   31061    29805    29852 1
   31062    29806    29853 1
   31063    29806    29854 1
   31064    29806    29855 1
   31065    29807    29808 1
   31066    29807    29856 1
   31067    29807    29857 1
   31068    29808    29809 1
   31069    29809    29810 1
   31070    29809    29858 1
   31071    29809    29859 1
   31072    29810    29811 1
   31073    29810    29817 1
   31074    29810    29860 1
   31075    29811    29812 1
   31076    29811    29861 1
   31077    29811    29862 1
   31078    29812    29813 1
   31079    29812    29863 1
   31080    29812    29864 1
   31081    29813    29814 1
   31082    29813    29865 1
   31083    29813    29866 1
   31084    29814    29815 1
   31085    29814    29867 1
   31086    29814    29868 1
   31087    29815    29816 1
   31088    29815    29869 1
   31089    29815    29870 1
   31090    29816    29871 1
   31091    29816    29872 1
   31092    29816    29873 1
   31093    29817    29818 1
   31094    29817    29874 1
   31095    29817    29875 1
   31096    29818    29819 1
   31097    29818    29876 1
   31098    29818    29877 1
   31099    29819    29820 1
   31100    29819    29878 1
   31101    29819    29879 1
   31102    29820    29821 1
   31103    29820    29880 1
   31104    29820    29881 1
   31105    29821    29822 1
   31106    29821    29882 1
   31107    29821    29883 1
   31108    29822    29823 1
   31109    29822    29884 1
   31110    29822    29885 1
   31111    29823    29824 1
   31112    29823    29886 1
   31113    29823    29887 1
   31114    29824    29888 1
   31115    29824    29889 1
   31116    29824    29890 1
   31117    29891    29892 1
   31118    29891    29898 1
   31119    29891    29930 1
   31120    29892    29893 1
   31121    29892    29896 1
   31122    29893    29894 1
   31123    29893    29897 1
   31124    29894    29895 1
   31125    29895    29896 1
   31126    29895    29906 1
   31127    29896    29902 1
   31128    29897    29898 1
   31129    29897    29901 1
   31130    29898    29899 1
   31131    29899    29900 1
   31132    29899    29903 1
   31133    29900    29901 1
   31134    29904    29905 1
   31135    29904    29912 1
   31136    29905    29906 1
   31137    29905    29913 1
   31138    29906    29907 1
   31139    29907    29908 1
   31140    29907    29911 1
   31141    29908    29909 1
   31142    29909    29910 1
   31143    29910    29911 1
   31144    29911    29912 1
   31145    29912    30022 1
   31146    29914    29915 1
   31147    29914    29947 1
   31148    29914    29948 1
   31149    29914    29949 1
   31150    29915    29916 1
   31151    29915    29950 1
   31152    29915    29951 1
   31153    29916    29917 1
   31154    29916    29952 1
   31155    29916    29953 1
   31156    29917    29918 1
   31157    29917    29954 1
   31158    29917    29955 1
   31159    29918    29919 1
   31160    29918    29956 1
   31161    29918    29957 1
   31162    29919    29920 1
   31163    29919    29958 1
   31164    29919    29959 1
   31165    29920    29921 1
   31166    29920    29960 1
   31167    29920    29961 1
   31168    29921    29922 1
   31169    29921    29962 1
   31170    29921    29963 1
   31171    29922    29923 1
   31172    29922    29929 1
   31173    29922    29964 1
   31174    29923    29924 1
   31175    29923    29965 1
   31176    29923    29966 1
   31177    29924    29925 1
   31178    29924    29967 1
   31179    29924    29968 1
   31180    29925    29926 1
   31181    29925    29969 1
   31182    29925    29970 1
   31183    29926    29927 1
   31184    29926    29971 1
   31185    29926    29972 1
   31186    29927    29928 1
   31187    29927    29973 1
   31188    29927    29974 1
   31189    29928    29975 1
   31190    29928    29976 1
   31191    29928    29977 1
   31192    29929    29930 1
   31193    29929    29978 1
   31194    29929    29979 1
   31195    29930    29931 1
   31196    29931    29932 1
   31197    29931    29980 1
   31198    29931    29981 1
   31199    29932    29933 1
   31200    29932    29939 1
   31201    29932    29982 1
   31202    29933    29934 1
   31203    29933    29983 1
   31204    29933    29984 1
   31205    29934    29935 1
   31206    29934    29985 1
   31207    29934    29986 1
   31208    29935    29936 1
   31209    29935    29987 1
   31210    29935    29988 1
   31211    29936    29937 1
   31212    29936    29989 1
   31213    29936    29990 1
   31214    29937    29938 1
   31215    29937    29991 1
   31216    29937    29992 1
   31217    29938    29993 1
   31218    29938    29994 1
   31219    29938    29995 1
   31220    29939    29940 1
   31221    29939    29996 1
   31222    29939    29997 1
   31223    29940    29941 1
   31224    29940    29998 1
   31225    29940    29999 1
   31226    29941    29942 1
   31227    29941    30000 1
   31228    29941    30001 1
   31229    29942    29943 1
   31230    29942    30002 1
   31231    29942    30003 1
   31232    29943    29944 1
   31233    29943    30004 1
   31234    29943    30005 1
   31235    29944    29945 1
   31236    29944    30006 1
   31237    29944    30007 1
   31238    29945    29946 1
   31239    29945    30008 1
   31240    29945    30009 1
   31241    29946    30010 1
   31242    29946    30011 1
   31243    29946    30012 1
   31244    30013    30014 1
   31245    30013    30020 1
   31246    30013    30052 1
   31247    30014    30015 1
   31248    30014    30018 1
   31249    30015    30016 1
   31250    30015    30019 1
   31251    30016    30017 1
   31252    30017    30018 1
   31253    30017    30028 1
   31254    30018    30024 1
   31255    30019    30020 1
   31256    30019    30023 1
   31257    30020    30021 1
   31258    30021    30022 1
   31259    30021    30025 1
   31260    30022    30023 1
   31261    30026    30027 1
   31262    30026    30034 1
   31263    30027    30028 1
   31264    30027    30035 1
   31265    30028    30029 1
   31266    30029    30030 1
   31267    30029    30033 1
   31268    30030    30031 1
   31269    30031    30032 1
   31270    30032    30033 1
   31271    30033    30034 1
   31272    30034    30144 1
   31273    30036    30037 1
   31274    30036    30069 1
   31275    30036    30070 1
   31276    30036    30071 1
   31277    30037    30038 1
   31278    30037    30072 1
   31279    30037    30073 1
   31280    30038    30039 1
   31281    30038    30074 1
   31282    30038    30075 1
   31283    30039    30040 1
   31284    30039    30076 1
   31285    30039    30077 1
   31286    30040    30041 1
   31287    30040    30078 1
   31288    30040    30079 1
   31289    30041    30042 1
   31290    30041    30080 1
   31291    30041    30081 1
   31292    30042    30043 1
   31293    30042    30082 1
   31294    30042    30083 1
   31295    30043    30044 1
   31296    30043    30084 1
   31297    30043    30085 1
   31298    30044    30045 1
   31299    30044    30051 1
   31300    30044    30086 1
   31301    30045    30046 1
   31302    30045    30087 1
   31303    30045    30088 1
   31304    30046    30047 1
   31305    30046    30089 1
   31306    30046    30090 1
   31307    30047    30048 1
   31308    30047    30091 1
   31309    30047    30092 1
   31310    30048    30049 1
   31311    30048    30093 1
   31312    30048    30094 1
   31313    30049    30050 1
   31314    30049    30095 1
   31315    30049    30096 1
   31316    30050    30097 1
   31317    30050    30098 1
   31318    30050    30099 1
   31319    30051    30052 1
   31320    30051    30100 1
   31321    30051    30101 1
   31322    30052    30053 1
   31323    30053    30054 1
   31324    30053    30102 1
   31325    30053    30103 1
   31326    30054    30055 1
   31327    30054    30061 1
   31328    30054    30104 1
   31329    30055    30056 1
   31330    30055    30105 1
   31331    30055    30106 1
   31332    30056    30057 1
   31333    30056    30107 1
   31334    30056    30108 1
   31335    30057    30058 1
   31336    30057    30109 1
   31337    30057    30110 1
   31338    30058    30059 1
   31339    30058    30111 1
   31340    30058    30112 1
   31341    30059    30060 1
   31342    30059    30113 1
   31343    30059    30114 1
   31344    30060    30115 1
   31345    30060    30116 1
   31346    30060    30117 1
   31347    30061    30062 1
   31348    30061    30118 1
   31349    30061    30119 1
   31350    30062    30063 1
   31351    30062    30120 1
   31352    30062    30121 1
   31353    30063    30064 1
   31354    30063    30122 1
   31355    30063    30123 1
   31356    30064    30065 1
   31357    30064    30124 1
   31358    30064    30125 1
   31359    30065    30066 1
   31360    30065    30126 1
   31361    30065    30127 1
   31362    30066    30067 1
   31363    30066    30128 1
   31364    30066    30129 1
   31365    30067    30068 1
   31366    30067    30130 1
   31367    30067    30131 1
   31368    30068    30132 1
   31369    30068    30133 1
   31370    30068    30134 1
   31371    30135    30136 1
   31372    30135    30142 1
   31373    30135    30174 1
   31374    30136    30137 1
   31375    30136    30140 1
   31376    30137    30138 1
   31377    30137    30141 1
   31378    30138    30139 1
   31379    30139    30140 1
   31380    30139    30150 1
   31381    30140    30146 1
   31382    30141    30142 1
   31383    30141    30145 1
   31384    30142    30143 1
   31385    30143    30144 1
   31386    30143    30147 1
   31387    30144    30145 1
   31388    30148    30149 1
   31389    30148    30156 1
   31390    30149    30150 1
   31391    30149    30157 1
   31392    30150    30151 1
   31393    30151    30152 1
   31394    30151    30155 1
   31395    30152    30153 1
   31396    30153    30154 1
   31397    30154    30155 1
   31398    30155    30156 1
   31399    30156    30266 1
   31400    30158    30159 1
   31401    30158    30191 1
   31402    30158    30192 1
   31403    30158    30193 1
   31404    30159    30160 1
   31405    30159    30194 1
   31406    30159    30195 1
   31407    30160    30161 1
   31408    30160    30196 1
   31409    30160    30197 1
   31410    30161    30162 1
   31411    30161    30198 1
   31412    30161    30199 1
   31413    30162    30163 1
   31414    30162    30200 1
   31415    30162    30201 1
   31416    30163    30164 1
   31417    30163    30202 1
   31418    30163    30203 1
   31419    30164    30165 1
   31420    30164    30204 1
   31421    30164    30205 1
   31422    30165    30166 1
   31423    30165    30206 1
   31424    30165    30207 1
   31425    30166    30167 1
   31426    30166    30173 1
   31427    30166    30208 1
   31428    30167    30168 1
   31429    30167    30209 1
   31430    30167    30210 1
   31431    30168    30169 1
   31432    30168    30211 1
   31433    30168    30212 1
   31434    30169    30170 1
   31435    30169    30213 1
   31436    30169    30214 1
   31437    30170    30171 1
   31438    30170    30215 1
   31439    30170    30216 1
   31440    30171    30172 1
   31441    30171    30217 1
   31442    30171    30218 1
   31443    30172    30219 1
   31444    30172    30220 1
   31445    30172    30221 1
   31446    30173    30174 1
   31447    30173    30222 1
   31448    30173    30223 1
   31449    30174    30175 1
   31450    30175    30176 1
   31451    30175    30224 1
   31452    30175    30225 1
   31453    30176    30177 1
   31454    30176    30183 1
   31455    30176    30226 1
   31456    30177    30178 1
   31457    30177    30227 1
   31458    30177    30228 1
   31459    30178    30179 1
   31460    30178    30229 1
   31461    30178    30230 1
   31462    30179    30180 1
   31463    30179    30231 1
   31464    30179    30232 1
   31465    30180    30181 1
   31466    30180    30233 1
   31467    30180    30234 1
   31468    30181    30182 1
   31469    30181    30235 1
   31470    30181    30236 1
   31471    30182    30237 1
   31472    30182    30238 1
   31473    30182    30239 1
   31474    30183    30184 1
   31475    30183    30240 1
   31476    30183    30241 1
   31477    30184    30185 1
   31478    30184    30242 1
   31479    30184    30243 1
   31480    30185    30186 1
   31481    30185    30244 1
   31482    30185    30245 1
   31483    30186    30187 1
   31484    30186    30246 1
   31485    30186    30247 1
   31486    30187    30188 1
   31487    30187    30248 1
   31488    30187    30249 1
   31489    30188    30189 1
   31490    30188    30250 1
   31491    30188    30251 1
   31492    30189    30190 1
   31493    30189    30252 1
   31494    30189    30253 1
   31495    30190    30254 1
   31496    30190    30255 1
   31497    30190    30256 1
   31498    30257    30258 1
   31499    30257    30264 1
   31500    30257    30296 1
   31501    30258    30259 1
   31502    30258    30262 1
   31503    30259    30260 1
   31504    30259    30263 1
   31505    30260    30261 1
   31506    30261    30262 1
   31507    30261    30272 1
   31508    30262    30268 1
   31509    30263    30264 1
   31510    30263    30267 1
   31511    30264    30265 1
   31512    30265    30266 1
   31513    30265    30269 1
   31514    30266    30267 1
   31515    30270    30271 1
   31516    30270    30278 1
   31517    30271    30272 1
   31518    30271    30279 1
   31519    30272    30273 1
   31520    30273    30274 1
   31521    30273    30277 1
   31522    30274    30275 1
   31523    30275    30276 1
   31524    30276    30277 1
   31525    30277    30278 1
   31526    30278    30388 1
   31527    30280    30281 1
   31528    30280    30313 1
   31529    30280    30314 1
   31530    30280    30315 1
   31531    30281    30282 1
   31532    30281    30316 1
   31533    30281    30317 1
   31534    30282    30283 1
   31535    30282    30318 1
   31536    30282    30319 1
   31537    30283    30284 1
   31538    30283    30320 1
   31539    30283    30321 1
   31540    30284    30285 1
   31541    30284    30322 1
   31542    30284    30323 1
   31543    30285    30286 1
   31544    30285    30324 1
   31545    30285    30325 1
   31546    30286    30287 1
   31547    30286    30326 1
   31548    30286    30327 1
   31549    30287    30288 1
   31550    30287    30328 1
   31551    30287    30329 1
   31552    30288    30289 1
   31553    30288    30295 1
   31554    30288    30330 1
   31555    30289    30290 1
   31556    30289    30331 1
   31557    30289    30332 1
   31558    30290    30291 1
   31559    30290    30333 1
   31560    30290    30334 1
   31561    30291    30292 1
   31562    30291    30335 1
   31563    30291    30336 1
   31564    30292    30293 1
   31565    30292    30337 1
   31566    30292    30338 1
   31567    30293    30294 1
   31568    30293    30339 1
   31569    30293    30340 1
   31570    30294    30341 1
   31571    30294    30342 1
   31572    30294    30343 1
   31573    30295    30296 1
   31574    30295    30344 1
   31575    30295    30345 1
   31576    30296    30297 1
   31577    30297    30298 1
   31578    30297    30346 1
   31579    30297    30347 1
   31580    30298    30299 1
   31581    30298    30305 1
   31582    30298    30348 1
   31583    30299    30300 1
   31584    30299    30349 1
   31585    30299    30350 1
   31586    30300    30301 1
   31587    30300    30351 1
   31588    30300    30352 1
   31589    30301    30302 1
   31590    30301    30353 1
   31591    30301    30354 1
   31592    30302    30303 1
   31593    30302    30355 1
   31594    30302    30356 1
   31595    30303    30304 1
   31596    30303    30357 1
   31597    30303    30358 1
   31598    30304    30359 1
   31599    30304    30360 1
   31600    30304    30361 1
   31601    30305    30306 1
   31602    30305    30362 1
   31603    30305    30363 1
   31604    30306    30307 1
   31605    30306    30364 1
   31606    30306    30365 1
   31607    30307    30308 1
   31608    30307    30366 1
   31609    30307    30367 1
   31610    30308    30309 1
   31611    30308    30368 1
   31612    30308    30369 1
   31613    30309    30310 1
   31614    30309    30370 1
   31615    30309    30371 1
   31616    30310    30311 1
   31617    30310    30372 1
   31618    30310    30373 1
   31619    30311    30312 1
   31620    30311    30374 1
   31621    30311    30375 1
   31622    30312    30376 1
   31623    30312    30377 1
   31624    30312    30378 1
   31625    30379    30380 1
   31626    30379    30386 1
   31627    30379    30418 1
   31628    30380    30381 1
   31629    30380    30384 1
   31630    30381    30382 1
   31631    30381    30385 1
   31632    30382    30383 1
   31633    30383    30384 1
   31634    30383    30394 1
   31635    30384    30390 1
   31636    30385    30386 1
   31637    30385    30389 1
   31638    30386    30387 1
   31639    30387    30388 1
   31640    30387    30391 1
   31641    30388    30389 1
   31642    30392    30393 1
   31643    30392    30400 1
   31644    30393    30394 1
   31645    30393    30401 1
   31646    30394    30395 1
   31647    30395    30396 1
   31648    30395    30399 1
   31649    30396    30397 1
   31650    30397    30398 1
   31651    30398    30399 1
   31652    30399    30400 1
   31653    30400    30502 1
   31654    30402    30403 1
   31655    30402    30435 1
   31656    30402    30436 1
   31657    30402    30437 1
   31658    30403    30404 1
   31659    30403    30438 1
   31660    30403    30439 1
   31661    30404    30405 1
   31662    30404    30440 1
   31663    30404    30441 1
   31664    30405    30406 1
   31665    30405    30442 1
   31666    30405    30443 1
   31667    30406    30407 1
   31668    30406    30444 1
   31669    30406    30445 1
   31670    30407    30408 1
   31671    30407    30446 1
   31672    30407    30447 1
   31673    30408    30409 1
   31674    30408    30448 1
   31675    30408    30449 1
   31676    30409    30410 1
   31677    30409    30450 1
   31678    30409    30451 1
   31679    30410    30411 1
   31680    30410    30417 1
   31681    30410    30452 1
   31682    30411    30412 1
   31683    30411    30453 1
   31684    30411    30454 1
   31685    30412    30413 1
   31686    30412    30455 1
   31687    30412    30456 1
   31688    30413    30414 1
   31689    30413    30457 1
   31690    30413    30458 1
   31691    30414    30415 1
   31692    30414    30459 1
   31693    30414    30460 1
   31694    30415    30416 1
   31695    30415    30461 1
   31696    30415    30462 1
   31697    30416    30463 1
   31698    30416    30464 1
   31699    30416    30465 1
   31700    30417    30418 1
   31701    30417    30466 1
   31702    30417    30467 1
   31703    30418    30419 1
   31704    30419    30420 1
   31705    30419    30468 1
   31706    30419    30469 1
   31707    30420    30421 1
   31708    30420    30427 1
   31709    30420    30470 1
   31710    30421    30422 1
   31711    30421    30471 1
   31712    30421    30472 1
   31713    30422    30423 1
   31714    30422    30473 1
   31715    30422    30474 1
   31716    30423    30424 1
   31717    30423    30475 1
   31718    30423    30476 1
   31719    30424    30425 1
   31720    30424    30477 1
   31721    30424    30478 1
   31722    30425    30426 1
   31723    30425    30479 1
   31724    30425    30480 1
   31725    30426    30481 1
   31726    30426    30482 1
   31727    30426    30483 1
   31728    30427    30428 1
   31729    30427    30484 1
   31730    30427    30485 1
   31731    30428    30429 1
   31732    30428    30486 1
   31733    30428    30487 1
   31734    30429    30430 1
   31735    30429    30488 1
   31736    30429    30489 1
   31737    30430    30431 1
   31738    30430    30490 1
   31739    30430    30491 1
   31740    30431    30432 1
   31741    30431    30492 1
   31742    30431    30493 1
   31743    30432    30433 1
   31744    30432    30494 1
   31745    30432    30495 1
   31746    30433    30434 1
   31747    30433    30496 1
   31748    30433    30497 1
   31749    30434    30498 1
   31750    30434    30499 1
   31751    30434    30500 1
@<TRIPOS>SUBSTRUCTURE
       1 RES             1 RESIDUE    0 **** ROOT      0
